
     RDKit          3D

 25 29  0  0  0  0  0  0  0  0999 V2000
   12.2873   -0.2809   21.8635 F   0  0  0  0  0  0  0  0  0  0  0  0
   11.6153    0.7555   22.3927 C   0  0  0  0  0  0  0  0  0  0  0  0
   12.1809    1.4479   23.4652 C   0  0  0  0  0  0  0  0  0  0  0  0
   11.5737    2.4939   24.0406 N   0  0  0  0  0  0  0  0  0  0  0  0
   10.3872    2.8839   23.5531 C   0  0  0  0  0  0  0  0  0  0  0  0
    9.7582    2.2229   22.4885 C   0  0  0  0  0  0  0  0  0  0  0  0
    8.1975    2.7749   21.9627 Cl  0  0  0  0  0  0  0  0  0  0  0  0
   10.3653    1.1135   21.8763 C   0  0  0  0  0  0  0  0  0  0  0  0
    9.6703    0.2876   20.8168 C   0  0  0  0  0  0  0  0  0  0  0  0
    8.5842   -0.5647   21.3869 C   0  0  0  0  0  0  0  0  0  0  0  0
    8.7764   -1.3759   22.4113 N   0  0  0  0  0  0  0  0  0  0  0  0
    7.5889   -2.0156   22.5302 C   0  0  0  0  0  0  0  0  0  0  0  0
    7.2259   -3.0284   23.5693 C   0  0  1  0  0  0  0  0  0  0  0  0
    6.8361   -4.3902   23.0855 C   0  0  0  0  0  0  0  0  0  0  0  0
    8.0449   -4.2704   24.0459 C   0  0  0  0  0  0  0  0  0  0  0  0
    8.9881   -4.1350   25.2241 C   0  0  0  0  0  0  0  0  0  0  0  0
    8.6379   -5.5047   24.7400 C   0  0  0  0  0  0  0  0  0  0  0  0
    6.6723   -1.6491   21.6471 N   0  0  0  0  0  0  0  0  0  0  0  0
    7.3174   -0.7184   20.8978 N   0  0  0  0  0  0  0  0  0  0  0  0
    6.6280   -0.0225   19.8597 C   0  0  0  0  0  0  0  0  0  0  0  0
    5.4172    0.6285   20.1257 C   0  0  0  0  0  0  0  0  0  0  0  0
    4.7949    1.3208   19.0807 C   0  0  0  0  0  0  0  0  0  0  0  0
    5.3866    1.3135   17.8104 C   0  0  0  0  0  0  0  0  0  0  0  0
    6.5285    0.6634   17.5389 N   0  0  0  0  0  0  0  0  0  0  0  0
    7.1277    0.0189   18.5463 C   0  0  0  0  0  0  0  0  0  0  0  0
  1  2  1  0
  2  3  2  0
  3  4  1  0
  4  5  2  0
  5  6  1  0
  6  7  1  0
  6  8  2  0
  8  9  1  0
  9 10  1  0
 10 11  2  0
 11 12  1  0
 13 12  1  6
 13 14  1  0
 14 15  1  0
 15 16  1  0
 16 17  1  0
 12 18  2  0
 18 19  1  0
 19 20  1  0
 20 21  2  0
 21 22  1  0
 22 23  2  0
 23 24  1  0
 24 25  2  0
  8  2  1  0
 19 10  1  0
 25 20  1  0
 15 13  1  0
 17 15  1  0
M  END
>  <cnnaffinity>  (1) 
-6.93227

>  <filename>  (1) 
Fc1cncc(Cl)c1Cc1nc(C2CC23CC3)nn1-c1cccnc1

>  <enamine_id>  (1) 
PV-006887001697

$$$$

     RDKit          3D

 25 28  0  0  0  0  0  0  0  0999 V2000
   12.0720   -1.1895   21.3161 F   0  0  0  0  0  0  0  0  0  0  0  0
   11.8493   -0.0391   21.9736 C   0  0  0  0  0  0  0  0  0  0  0  0
   12.7521    0.3819   22.9389 C   0  0  0  0  0  0  0  0  0  0  0  0
   12.4506    1.5805   23.5949 C   0  0  0  0  0  0  0  0  0  0  0  0
   11.2857    2.2756   23.2538 C   0  0  0  0  0  0  0  0  0  0  0  0
   10.4164    1.8503   22.3202 N   0  0  0  0  0  0  0  0  0  0  0  0
   10.6901    0.7086   21.6832 C   0  0  0  0  0  0  0  0  0  0  0  0
    9.6672    0.2328   20.6883 C   0  0  0  0  0  0  0  0  0  0  0  0
    8.6367   -0.6089   21.3410 C   0  0  0  0  0  0  0  0  0  0  0  0
    8.8625   -1.4625   22.3108 N   0  0  0  0  0  0  0  0  0  0  0  0
    7.6341   -1.9945   22.5456 C   0  0  0  0  0  0  0  0  0  0  0  0
    7.4090   -3.0003   23.6333 C   0  0  1  0  0  0  0  0  0  0  0  0
    8.1157   -4.3453   23.3206 C   0  0  0  0  0  0  0  0  0  0  0  0
    8.0953   -5.2989   24.4905 C   0  0  0  0  0  0  0  0  0  0  0  0
    7.8547   -4.9147   25.7471 C   0  0  0  0  0  0  0  0  0  0  0  0
    7.5093   -3.4914   26.1207 C   0  0  0  0  0  0  0  0  0  0  0  0
    7.8586   -2.4780   25.0170 C   0  0  0  0  0  0  0  0  0  0  0  0
    6.6826   -1.5559   21.7505 N   0  0  0  0  0  0  0  0  0  0  0  0
    7.3346   -0.6850   20.9353 N   0  0  0  0  0  0  0  0  0  0  0  0
    6.6505    0.0030   19.9001 C   0  0  0  0  0  0  0  0  0  0  0  0
    5.4359    0.6458   20.1656 C   0  0  0  0  0  0  0  0  0  0  0  0
    4.8113    1.3116   19.1091 C   0  0  0  0  0  0  0  0  0  0  0  0
    5.4010    1.2950   17.8380 C   0  0  0  0  0  0  0  0  0  0  0  0
    6.5604    0.6724   17.5779 N   0  0  0  0  0  0  0  0  0  0  0  0
    7.1669    0.0516   18.5936 C   0  0  0  0  0  0  0  0  0  0  0  0
  1  2  1  0
  2  3  2  0
  3  4  1  0
  4  5  2  0
  5  6  1  0
  6  7  2  0
  7  8  1  0
  8  9  1  0
  9 10  2  0
 10 11  1  0
 12 11  1  6
 12 13  1  0
 13 14  1  0
 14 15  2  0
 15 16  1  0
 16 17  1  0
 11 18  2  0
 18 19  1  0
 19 20  1  0
 20 21  2  0
 21 22  1  0
 22 23  2  0
 23 24  1  0
 24 25  2  0
  7  2  1  0
 19  9  1  0
 25 20  1  0
 17 12  1  0
M  END
>  <cnnaffinity>  (2) 
-6.93157

>  <filename>  (2) 
Fc1cccnc1Cc1nc(C2CC=CCC2)nn1-c1cccnc1

>  <enamine_id>  (2) 
PV-007001170663

$$$$

     RDKit          3D

 26 29  0  0  0  0  0  0  0  0999 V2000
   14.1514   -0.6482   22.4649 C   0  0  0  0  0  0  0  0  0  0  0  0
   12.8894    0.1485   22.5307 C   0  0  0  0  0  0  0  0  0  0  0  0
   12.7236    1.2136   23.3711 C   0  0  0  0  0  0  0  0  0  0  0  0
   11.5344    1.9969   23.3324 C   0  0  0  0  0  0  0  0  0  0  0  0
   10.5669    1.7049   22.4197 C   0  0  0  0  0  0  0  0  0  0  0  0
   10.6819    0.6309   21.5697 N   0  0  0  0  0  0  0  0  0  0  0  0
    9.5315    0.2471   20.7432 C   0  0  0  0  0  0  0  0  0  0  0  0
    8.4690   -0.5449   21.4585 C   0  0  0  0  0  0  0  0  0  0  0  0
    8.5988   -1.2515   22.5581 N   0  0  0  0  0  0  0  0  0  0  0  0
    7.4024   -1.8872   22.6666 C   0  0  0  0  0  0  0  0  0  0  0  0
    7.0591   -2.8953   23.7390 C   0  0  2  0  0  0  0  0  0  0  0  0
    7.8542   -2.6563   25.0463 C   0  0  0  0  0  0  0  0  0  0  0  0
    9.2481   -3.2403   25.0164 C   0  0  0  0  0  0  0  0  0  0  0  0
    9.6948   -4.0567   24.0548 C   0  0  0  0  0  0  0  0  0  0  0  0
    8.7973   -4.5479   22.9358 C   0  0  0  0  0  0  0  0  0  0  0  0
    7.3074   -4.3482   23.2511 C   0  0  0  0  0  0  0  0  0  0  0  0
    6.5390   -1.5917   21.7157 N   0  0  0  0  0  0  0  0  0  0  0  0
    7.2269   -0.7289   20.9207 N   0  0  0  0  0  0  0  0  0  0  0  0
    6.5672   -0.0573   19.8520 C   0  0  0  0  0  0  0  0  0  0  0  0
    5.3683    0.6223   20.0967 C   0  0  0  0  0  0  0  0  0  0  0  0
    4.7933    1.3351   19.0444 C   0  0  0  0  0  0  0  0  0  0  0  0
    5.4162    1.3202   17.7908 C   0  0  0  0  0  0  0  0  0  0  0  0
    6.5416    0.6349   17.5378 N   0  0  0  0  0  0  0  0  0  0  0  0
    7.0979   -0.0384   18.5510 C   0  0  0  0  0  0  0  0  0  0  0  0
   11.8010   -0.2492   21.6289 C   0  0  0  0  0  0  0  0  0  0  0  0
   11.8315   -1.2623   20.9446 O   0  0  0  0  0  0  0  0  0  0  0  0
  1  2  1  0
  2  3  2  0
  3  4  1  0
  4  5  2  0
  5  6  1  0
  6  7  1  0
  7  8  1  0
  8  9  2  0
  9 10  1  0
 11 10  1  6
 11 12  1  0
 12 13  1  0
 13 14  2  0
 14 15  1  0
 15 16  1  0
 10 17  2  0
 17 18  1  0
 18 19  1  0
 19 20  2  0
 20 21  1  0
 21 22  2  0
 22 23  1  0
 23 24  2  0
  6 25  1  0
 25 26  2  0
 25  2  1  0
 18  8  1  0
 24 19  1  0
 16 11  1  0
M  END
>  <cnnaffinity>  (3) 
-6.89579

>  <filename>  (3) 
Cc1cccn(Cc2nc(C3CC=CCC3)nn2-c2cccnc2)c1=O

>  <enamine_id>  (3) 
PV-006756558808

$$$$

     RDKit          3D

 26 29  0  0  0  0  0  0  0  0999 V2000
   13.3539   -1.7933   21.3539 C   0  0  0  0  0  0  0  0  0  0  0  0
   12.1725   -1.0543   21.1396 O   0  0  0  0  0  0  0  0  0  0  0  0
   11.8881    0.0048   21.9491 C   0  0  0  0  0  0  0  0  0  0  0  0
   12.6997    0.4626   23.0010 C   0  0  0  0  0  0  0  0  0  0  0  0
   12.3747    1.6805   23.6170 C   0  0  0  0  0  0  0  0  0  0  0  0
   11.2280    2.3586   23.1985 C   0  0  0  0  0  0  0  0  0  0  0  0
   10.3856    1.8703   22.2741 N   0  0  0  0  0  0  0  0  0  0  0  0
   10.6757    0.7098   21.6839 C   0  0  0  0  0  0  0  0  0  0  0  0
    9.6370    0.2077   20.7153 C   0  0  0  0  0  0  0  0  0  0  0  0
    8.5724   -0.5726   21.3942 C   0  0  0  0  0  0  0  0  0  0  0  0
    8.7673   -1.3909   22.4060 N   0  0  0  0  0  0  0  0  0  0  0  0
    7.5642   -1.9972   22.5545 C   0  0  0  0  0  0  0  0  0  0  0  0
    7.3213   -2.9885   23.6534 C   0  0  1  0  0  0  0  0  0  0  0  0
    6.5219   -2.3443   24.8234 C   0  0  0  0  0  0  0  0  0  0  0  0
    6.0240   -3.3635   25.8150 C   0  0  0  0  0  0  0  0  0  0  0  0
    6.0084   -4.6793   25.5857 C   0  0  0  0  0  0  0  0  0  0  0  0
    6.4892   -5.3063   24.2993 C   0  0  0  0  0  0  0  0  0  0  0  0
    6.6377   -4.2864   23.1554 C   0  0  0  0  0  0  0  0  0  0  0  0
    6.6380   -1.6102   21.6948 N   0  0  0  0  0  0  0  0  0  0  0  0
    7.2916   -0.7029   20.9269 N   0  0  0  0  0  0  0  0  0  0  0  0
    6.6054   -0.0302   19.8738 C   0  0  0  0  0  0  0  0  0  0  0  0
    5.3905    0.6198   20.1233 C   0  0  0  0  0  0  0  0  0  0  0  0
    4.7872    1.3145   19.0706 C   0  0  0  0  0  0  0  0  0  0  0  0
    5.3949    1.3069   17.8092 C   0  0  0  0  0  0  0  0  0  0  0  0
    6.5326    0.6451   17.5496 N   0  0  0  0  0  0  0  0  0  0  0  0
    7.1182   -0.0017   18.5640 C   0  0  0  0  0  0  0  0  0  0  0  0
  1  2  1  0
  2  3  1  0
  3  4  2  0
  4  5  1  0
  5  6  2  0
  6  7  1  0
  7  8  2  0
  8  9  1  0
  9 10  1  0
 10 11  2  0
 11 12  1  0
 13 12  1  6
 13 14  1  0
 14 15  1  0
 15 16  2  0
 16 17  1  0
 17 18  1  0
 12 19  2  0
 19 20  1  0
 20 21  1  0
 21 22  2  0
 22 23  1  0
 23 24  2  0
 24 25  1  0
 25 26  2  0
  8  3  1  0
 20 10  1  0
 26 21  1  0
 18 13  1  0
M  END
>  <cnnaffinity>  (4) 
-6.84118

>  <filename>  (4) 
COc1cccnc1Cc1nc(C2CC=CCC2)nn1-c1cccnc1

>  <enamine_id>  (4) 
PV-007167061484

$$$$

     RDKit          3D

 25 28  0  0  0  0  0  0  0  0999 V2000
    7.9813    2.7366   21.9999 C   0  0  0  0  0  0  0  0  0  0  0  0
    9.3005    2.3502   22.4453 N   0  0  0  0  0  0  0  0  0  0  0  0
    9.8106    2.9542   23.5268 N   0  0  0  0  0  0  0  0  0  0  0  0
   10.9728    2.3572   23.7487 C   0  0  0  0  0  0  0  0  0  0  0  0
   11.1913    1.3445   22.7924 C   0  0  0  0  0  0  0  0  0  0  0  0
   12.5310    0.2672   22.6781 Cl  0  0  0  0  0  0  0  0  0  0  0  0
   10.0846    1.3459   21.9684 C   0  0  0  0  0  0  0  0  0  0  0  0
    9.6472    0.3690   20.9068 C   0  0  0  0  0  0  0  0  0  0  0  0
    8.5930   -0.5872   21.3771 C   0  0  0  0  0  0  0  0  0  0  0  0
    8.7995   -1.4605   22.3433 N   0  0  0  0  0  0  0  0  0  0  0  0
    7.5913   -2.0554   22.4906 C   0  0  0  0  0  0  0  0  0  0  0  0
    7.3604   -3.0607   23.5743 C   0  0  1  0  0  0  0  0  0  0  0  0
    6.5459   -2.4477   24.7455 C   0  0  0  0  0  0  0  0  0  0  0  0
    6.0533   -3.4888   25.7117 C   0  0  0  0  0  0  0  0  0  0  0  0
    6.0513   -4.7962   25.4565 C   0  0  0  0  0  0  0  0  0  0  0  0
    6.5558   -5.3975   24.1681 C   0  0  0  0  0  0  0  0  0  0  0  0
    6.7073   -4.3569   23.0487 C   0  0  0  0  0  0  0  0  0  0  0  0
    6.6546   -1.6287   21.6617 N   0  0  0  0  0  0  0  0  0  0  0  0
    7.3150   -0.7003   20.9109 N   0  0  0  0  0  0  0  0  0  0  0  0
    6.6256   -0.0205   19.8708 C   0  0  0  0  0  0  0  0  0  0  0  0
    5.4164    0.6311   20.1360 C   0  0  0  0  0  0  0  0  0  0  0  0
    4.7951    1.3156   19.0903 C   0  0  0  0  0  0  0  0  0  0  0  0
    5.3877    1.3065   17.8233 C   0  0  0  0  0  0  0  0  0  0  0  0
    6.5281    0.6532   17.5514 N   0  0  0  0  0  0  0  0  0  0  0  0
    7.1321    0.0071   18.5564 C   0  0  0  0  0  0  0  0  0  0  0  0
  1  2  1  0
  2  3  1  0
  3  4  2  0
  4  5  1  0
  5  6  1  0
  5  7  2  0
  7  8  1  0
  8  9  1  0
  9 10  2  0
 10 11  1  0
 12 11  1  6
 12 13  1  0
 13 14  1  0
 14 15  2  0
 15 16  1  0
 16 17  1  0
 11 18  2  0
 18 19  1  0
 19 20  1  0
 20 21  2  0
 21 22  1  0
 22 23  2  0
 23 24  1  0
 24 25  2  0
  7  2  1  0
 19  9  1  0
 25 20  1  0
 17 12  1  0
M  END
>  <cnnaffinity>  (5) 
-6.83884

>  <filename>  (5) 
Cn1ncc(Cl)c1Cc1nc(C2CC=CCC2)nn1-c1cccnc1

>  <enamine_id>  (5) 
PV-006734292620

$$$$

     RDKit          3D

 26 29  0  0  0  0  0  0  0  0999 V2000
   13.1782   -1.8825   21.4088 C   0  0  0  0  0  0  0  0  0  0  0  0
   12.0710   -1.0364   21.1868 O   0  0  0  0  0  0  0  0  0  0  0  0
   11.8614    0.0491   21.9582 C   0  0  0  0  0  0  0  0  0  0  0  0
   12.7190    0.4724   22.9816 C   0  0  0  0  0  0  0  0  0  0  0  0
   12.4086    1.6642   23.6233 C   0  0  0  0  0  0  0  0  0  0  0  0
   11.3378    2.4114   23.3439 N   0  0  0  0  0  0  0  0  0  0  0  0
   10.5119    1.9581   22.3893 C   0  0  0  0  0  0  0  0  0  0  0  0
   10.6955    0.7823   21.6662 C   0  0  0  0  0  0  0  0  0  0  0  0
    9.6508    0.2332   20.7044 C   0  0  0  0  0  0  0  0  0  0  0  0
    8.6055   -0.6237   21.3502 C   0  0  0  0  0  0  0  0  0  0  0  0
    8.8089   -1.4525   22.3489 N   0  0  0  0  0  0  0  0  0  0  0  0
    7.5939   -2.0086   22.5439 C   0  0  0  0  0  0  0  0  0  0  0  0
    7.3669   -3.0261   23.6143 C   0  0  2  0  0  0  0  0  0  0  0  0
    7.0386   -4.4104   23.0001 C   0  0  0  0  0  0  0  0  0  0  0  0
    6.5182   -5.3827   24.0228 C   0  0  0  0  0  0  0  0  0  0  0  0
    6.1001   -5.0280   25.2406 C   0  0  0  0  0  0  0  0  0  0  0  0
    6.1004   -3.6033   25.7438 C   0  0  0  0  0  0  0  0  0  0  0  0
    6.2660   -2.5859   24.6065 C   0  0  0  0  0  0  0  0  0  0  0  0
    6.6503   -1.5936   21.7162 N   0  0  0  0  0  0  0  0  0  0  0  0
    7.3109   -0.7058   20.9295 N   0  0  0  0  0  0  0  0  0  0  0  0
    6.6381   -0.0204   19.8855 C   0  0  0  0  0  0  0  0  0  0  0  0
    5.4278    0.6298   20.1485 C   0  0  0  0  0  0  0  0  0  0  0  0
    4.8026    1.3085   19.1007 C   0  0  0  0  0  0  0  0  0  0  0  0
    5.3984    1.2961   17.8336 C   0  0  0  0  0  0  0  0  0  0  0  0
    6.5482    0.6567   17.5669 N   0  0  0  0  0  0  0  0  0  0  0  0
    7.1541    0.0227   18.5773 C   0  0  0  0  0  0  0  0  0  0  0  0
  1  2  1  0
  2  3  1  0
  3  4  2  0
  4  5  1  0
  5  6  2  0
  6  7  1  0
  7  8  2  0
  8  9  1  0
  9 10  1  0
 10 11  2  0
 11 12  1  0
 13 12  1  6
 13 14  1  0
 14 15  1  0
 15 16  2  0
 16 17  1  0
 17 18  1  0
 12 19  2  0
 19 20  1  0
 20 21  1  0
 21 22  2  0
 22 23  1  0
 23 24  2  0
 24 25  1  0
 25 26  2  0
  8  3  1  0
 20 10  1  0
 26 21  1  0
 18 13  1  0
M  END
>  <cnnaffinity>  (6) 
-6.83754

>  <filename>  (6) 
COc1ccncc1Cc1nc(C2CC=CCC2)nn1-c1cccnc1

>  <enamine_id>  (6) 
PV-006760059487

$$$$

     RDKit          3D

 25 28  0  0  0  0  0  0  0  0999 V2000
    7.6295   -2.4247   25.0032 C   0  0  0  0  0  0  0  0  0  0  0  0
    7.4434   -3.0385   23.6043 C   0  0  1  0  0  0  0  0  0  0  0  0
    7.6504   -2.0360   22.5099 C   0  0  0  0  0  0  0  0  0  0  0  0
    6.6870   -1.6137   21.7144 N   0  0  0  0  0  0  0  0  0  0  0  0
    7.3170   -0.6984   20.9288 N   0  0  0  0  0  0  0  0  0  0  0  0
    6.6411   -0.0010   19.8964 C   0  0  0  0  0  0  0  0  0  0  0  0
    5.4323    0.6466   20.1628 C   0  0  0  0  0  0  0  0  0  0  0  0
    4.8100    1.3150   19.1078 C   0  0  0  0  0  0  0  0  0  0  0  0
    5.3978    1.2965   17.8370 C   0  0  0  0  0  0  0  0  0  0  0  0
    6.5556    0.6713   17.5754 N   0  0  0  0  0  0  0  0  0  0  0  0
    7.1631    0.0486   18.5893 C   0  0  0  0  0  0  0  0  0  0  0  0
    8.6058   -0.5852   21.3462 C   0  0  0  0  0  0  0  0  0  0  0  0
    9.6237    0.3273   20.7698 C   0  0  0  0  0  0  0  0  0  0  0  0
   10.3370    1.1087   21.8416 C   0  0  0  0  0  0  0  0  0  0  0  0
    9.7432    2.1991   22.4912 C   0  0  0  0  0  0  0  0  0  0  0  0
    8.1755    2.7572   22.0094 Cl  0  0  0  0  0  0  0  0  0  0  0  0
   10.3967    2.8334   23.5535 C   0  0  0  0  0  0  0  0  0  0  0  0
   11.5910    2.4376   24.0091 N   0  0  0  0  0  0  0  0  0  0  0  0
   12.1640    1.3837   23.4168 C   0  0  0  0  0  0  0  0  0  0  0  0
   11.5700    0.7064   22.3512 C   0  0  0  0  0  0  0  0  0  0  0  0
   12.1899   -0.3591   21.8201 F   0  0  0  0  0  0  0  0  0  0  0  0
    8.8527   -1.4423   22.3116 N   0  0  0  0  0  0  0  0  0  0  0  0
    8.3350   -4.2595   23.4052 C   0  0  0  0  0  0  0  0  0  0  0  0
    7.8508   -5.5966   23.8760 C   0  0  0  0  0  0  0  0  0  0  0  0
    7.9205   -5.2894   22.4024 C   0  0  0  0  0  0  0  0  0  0  0  0
  2  1  1  1
  2  3  1  0
  3  4  2  0
  4  5  1  0
  5  6  1  0
  6  7  2  0
  7  8  1  0
  8  9  2  0
  9 10  1  0
 10 11  2  0
  5 12  1  0
 12 13  1  0
 13 14  1  0
 14 15  2  0
 15 16  1  0
 15 17  1  0
 17 18  2  0
 18 19  1  0
 19 20  2  0
 20 21  1  0
 12 22  2  0
  2 23  1  0
 23 24  1  0
 24 25  1  0
 22  3  1  0
 25 23  1  0
 11  6  1  0
 20 14  1  0
M  END
>  <cnnaffinity>  (7) 
-6.83099

>  <filename>  (7) 
CC(c1nc(Cc2c(F)cncc2Cl)n(-c2cccnc2)n1)C1CC1

>  <enamine_id>  (7) 
PV-006917551013

$$$$

     RDKit          3D

 24 27  0  0  0  0  0  0  0  0999 V2000
   11.4112    3.0928   24.0315 C   0  0  0  0  0  0  0  0  0  0  0  0
   11.4589    1.9673   23.0652 C   0  0  0  0  0  0  0  0  0  0  0  0
   10.4957    1.7130   22.2413 N   0  0  0  0  0  0  0  0  0  0  0  0
   10.7279    0.5432   21.5555 C   0  0  0  0  0  0  0  0  0  0  0  0
    9.6362    0.1298   20.6391 C   0  0  0  0  0  0  0  0  0  0  0  0
    8.5799   -0.6258   21.3605 C   0  0  0  0  0  0  0  0  0  0  0  0
    8.7871   -1.4319   22.3746 N   0  0  0  0  0  0  0  0  0  0  0  0
    7.5632   -1.9961   22.5775 C   0  0  0  0  0  0  0  0  0  0  0  0
    7.3609   -2.9975   23.6702 C   0  0  0  0  0  0  0  0  0  0  0  0
    8.2535   -4.2545   23.5540 C   0  0  0  0  0  0  0  0  0  0  0  0
    8.3434   -4.8297   24.9793 C   0  0  0  0  0  0  0  0  0  0  0  0
    8.0229   -3.6611   25.9426 C   0  0  0  0  0  0  0  0  0  0  0  0
    7.7382   -2.4375   25.0580 C   0  0  0  0  0  0  0  0  0  0  0  0
    6.6255   -1.5878   21.7484 N   0  0  0  0  0  0  0  0  0  0  0  0
    7.2825   -0.7075   20.9479 N   0  0  0  0  0  0  0  0  0  0  0  0
    6.6129   -0.0249   19.8901 C   0  0  0  0  0  0  0  0  0  0  0  0
    5.4038    0.6336   20.1362 C   0  0  0  0  0  0  0  0  0  0  0  0
    4.7948    1.3179   19.0821 C   0  0  0  0  0  0  0  0  0  0  0  0
    5.4043    1.3068   17.8232 C   0  0  0  0  0  0  0  0  0  0  0  0
    6.5502    0.6563   17.5706 N   0  0  0  0  0  0  0  0  0  0  0  0
    7.1374    0.0116   18.5844 C   0  0  0  0  0  0  0  0  0  0  0  0
   11.8736   -0.1164   21.8735 C   0  0  0  0  0  0  0  0  0  0  0  0
   12.3395   -1.4336   21.3333 C   0  0  0  0  0  0  0  0  0  0  0  0
   12.7578    0.8100   23.0391 S   0  0  0  0  0  0  0  0  0  0  0  0
  1  2  1  0
  2  3  2  0
  3  4  1  0
  4  5  1  0
  5  6  1  0
  6  7  2  0
  7  8  1  0
  8  9  1  0
  9 10  1  0
 10 11  1  0
 11 12  1  0
 12 13  1  0
  8 14  2  0
 14 15  1  0
 15 16  1  0
 16 17  2  0
 17 18  1  0
 18 19  2  0
 19 20  1  0
 20 21  2  0
  4 22  2  0
 22 23  1  0
 22 24  1  0
 24  2  1  0
 15  6  1  0
 21 16  1  0
 13  9  1  0
M  END
>  <cnnaffinity>  (8) 
-6.81113

>  <filename>  (8) 
Cc1nc(Cc2nc(C3CCCC3)nn2-c2cccnc2)c(C)s1

>  <enamine_id>  (8) 
PV-006755210978

$$$$

     RDKit          3D

 25 28  0  0  0  0  0  0  0  0999 V2000
   14.3295   -1.7874   22.0954 C   0  0  0  0  0  0  0  0  0  0  0  0
   13.0323   -1.0377   22.1368 C   0  0  0  0  0  0  0  0  0  0  0  0
   12.0596   -1.3386   21.1760 C   0  0  0  0  0  0  0  0  0  0  0  0
   10.8639   -0.6363   21.1870 C   0  0  0  0  0  0  0  0  0  0  0  0
   10.6483    0.3501   22.1632 C   0  0  0  0  0  0  0  0  0  0  0  0
    9.2588    0.9888   22.2770 C   0  0  0  0  0  0  0  0  0  0  0  0
    8.2050   -0.0877   22.2979 C   0  0  0  0  0  0  0  0  0  0  0  0
    8.1267   -0.9484   23.2945 N   0  0  0  0  0  0  0  0  0  0  0  0
    7.4470   -1.9881   22.7527 C   0  0  0  0  0  0  0  0  0  0  0  0
    7.1886   -3.1892   23.5997 C   0  0  2  0  0  0  0  0  0  0  0  0
    6.9921   -4.4988   22.8081 C   0  0  0  0  0  0  0  0  0  0  0  0
    6.5282   -5.6201   23.7034 C   0  0  0  0  0  0  0  0  0  0  0  0
    6.0896   -5.4412   24.9528 C   0  0  0  0  0  0  0  0  0  0  0  0
    5.9494   -4.0795   25.6000 C   0  0  0  0  0  0  0  0  0  0  0  0
    6.0080   -2.9446   24.5680 C   0  0  0  0  0  0  0  0  0  0  0  0
    7.0331   -1.8046   21.5162 N   0  0  0  0  0  0  0  0  0  0  0  0
    7.5252   -0.5667   21.2085 N   0  0  0  0  0  0  0  0  0  0  0  0
    6.9330    0.1287   20.0982 C   0  0  0  0  0  0  0  0  0  0  0  0
    5.7102    0.7864   20.2832 C   0  0  0  0  0  0  0  0  0  0  0  0
    5.0900    1.3507   19.1665 C   0  0  0  0  0  0  0  0  0  0  0  0
    5.7034    1.2309   17.9149 C   0  0  0  0  0  0  0  0  0  0  0  0
    6.8841    0.6196   17.7346 N   0  0  0  0  0  0  0  0  0  0  0  0
    7.4830    0.0842   18.8072 C   0  0  0  0  0  0  0  0  0  0  0  0
   11.6861    0.5714   23.0784 C   0  0  0  0  0  0  0  0  0  0  0  0
   12.8555   -0.0939   23.0693 N   0  0  0  0  0  0  0  0  0  0  0  0
  1  2  1  0
  2  3  2  0
  3  4  1  0
  4  5  2  0
  5  6  1  0
  6  7  1  0
  7  8  2  0
  8  9  1  0
 10  9  1  6
 10 11  1  0
 11 12  1  0
 12 13  2  0
 13 14  1  0
 14 15  1  0
  9 16  2  0
 16 17  1  0
 17 18  1  0
 18 19  2  0
 19 20  1  0
 20 21  2  0
 21 22  1  0
 22 23  2  0
  5 24  1  0
 24 25  2  0
 25  2  1  0
 17  7  1  0
 23 18  1  0
 15 10  1  0
M  END
>  <cnnaffinity>  (9) 
-6.79786

>  <filename>  (9) 
Cc1ccc(Cc2nc(C3CC=CCC3)nn2-c2cccnc2)cn1

>  <enamine_id>  (9) 
PV-006735812559

$$$$

     RDKit          3D

 25 28  0  0  0  0  0  0  0  0999 V2000
   11.0609    3.6310   24.0086 C   0  0  0  0  0  0  0  0  0  0  0  0
   11.3066    2.3356   23.2633 C   0  0  0  0  0  0  0  0  0  0  0  0
   12.4723    1.5743   23.4572 C   0  0  0  0  0  0  0  0  0  0  0  0
   12.7815    0.4704   22.7671 N   0  0  0  0  0  0  0  0  0  0  0  0
   11.9071    0.0475   21.8457 C   0  0  0  0  0  0  0  0  0  0  0  0
   10.6881    0.6901   21.5814 C   0  0  0  0  0  0  0  0  0  0  0  0
    9.6579    0.1095   20.6263 C   0  0  0  0  0  0  0  0  0  0  0  0
    8.5799   -0.6763   21.3098 C   0  0  0  0  0  0  0  0  0  0  0  0
    8.7709   -1.4874   22.3303 N   0  0  0  0  0  0  0  0  0  0  0  0
    7.5450   -2.0171   22.5446 C   0  0  0  0  0  0  0  0  0  0  0  0
    7.2999   -2.9981   23.6517 C   0  0  1  0  0  0  0  0  0  0  0  0
    6.5422   -2.3315   24.8301 C   0  0  0  0  0  0  0  0  0  0  0  0
    6.0424   -3.3329   25.8403 C   0  0  0  0  0  0  0  0  0  0  0  0
    5.9948   -4.6490   25.6197 C   0  0  0  0  0  0  0  0  0  0  0  0
    6.4462   -5.2928   24.3280 C   0  0  0  0  0  0  0  0  0  0  0  0
    6.5904   -4.2853   23.1728 C   0  0  0  0  0  0  0  0  0  0  0  0
    6.6025   -1.5855   21.7241 N   0  0  0  0  0  0  0  0  0  0  0  0
    7.2794   -0.7486   20.8964 N   0  0  0  0  0  0  0  0  0  0  0  0
    6.5948   -0.0548   19.8653 C   0  0  0  0  0  0  0  0  0  0  0  0
    5.3964    0.6151   20.1328 C   0  0  0  0  0  0  0  0  0  0  0  0
    4.7977    1.3175   19.0833 C   0  0  0  0  0  0  0  0  0  0  0  0
    5.3935    1.3134   17.8158 C   0  0  0  0  0  0  0  0  0  0  0  0
    6.5321    0.6553   17.5503 N   0  0  0  0  0  0  0  0  0  0  0  0
    7.1089   -0.0088   18.5578 C   0  0  0  0  0  0  0  0  0  0  0  0
   10.3958    1.8485   22.3098 C   0  0  0  0  0  0  0  0  0  0  0  0
  1  2  1  0
  2  3  2  0
  3  4  1  0
  4  5  2  0
  5  6  1  0
  6  7  1  0
  7  8  1  0
  8  9  2  0
  9 10  1  0
 11 10  1  6
 11 12  1  0
 12 13  1  0
 13 14  2  0
 14 15  1  0
 15 16  1  0
 10 17  2  0
 17 18  1  0
 18 19  1  0
 19 20  2  0
 20 21  1  0
 21 22  2  0
 22 23  1  0
 23 24  2  0
  6 25  2  0
 25  2  1  0
 18  8  1  0
 24 19  1  0
 16 11  1  0
M  END
>  <cnnaffinity>  (10) 
-6.78068

>  <filename>  (10) 
Cc1cncc(Cc2nc(C3CC=CCC3)nn2-c2cccnc2)c1

>  <enamine_id>  (10) 
PV-007051407720

$$$$

     RDKit          3D

 24 27  0  0  0  0  0  0  0  0999 V2000
   12.0293   -1.2582   21.3334 F   0  0  0  0  0  0  0  0  0  0  0  0
   11.8403   -0.0946   21.9791 C   0  0  0  0  0  0  0  0  0  0  0  0
   12.7492    0.3060   22.9476 C   0  0  0  0  0  0  0  0  0  0  0  0
   12.4784    1.5167   23.5944 C   0  0  0  0  0  0  0  0  0  0  0  0
   11.3360    2.2427   23.2400 C   0  0  0  0  0  0  0  0  0  0  0  0
   10.4607    1.8364   22.3038 N   0  0  0  0  0  0  0  0  0  0  0  0
   10.7043    0.6834   21.6773 C   0  0  0  0  0  0  0  0  0  0  0  0
    9.6700    0.2262   20.6859 C   0  0  0  0  0  0  0  0  0  0  0  0
    8.6378   -0.6035   21.3435 C   0  0  0  0  0  0  0  0  0  0  0  0
    8.8625   -1.4538   22.3192 N   0  0  0  0  0  0  0  0  0  0  0  0
    7.6393   -1.9843   22.5592 C   0  0  0  0  0  0  0  0  0  0  0  0
    7.3789   -2.9423   23.6860 C   0  0  0  0  0  0  0  0  0  0  0  0
    7.5848   -2.2794   25.0726 C   0  0  0  0  0  0  0  0  0  0  0  0
    9.0635   -2.5176   25.4422 C   0  0  0  0  0  0  0  0  0  0  0  0
    9.5451   -3.7223   24.6020 C   0  0  0  0  0  0  0  0  0  0  0  0
    8.3639   -4.1354   23.6949 C   0  0  0  0  0  0  0  0  0  0  0  0
    6.6844   -1.5497   21.7591 N   0  0  0  0  0  0  0  0  0  0  0  0
    7.3346   -0.6829   20.9369 N   0  0  0  0  0  0  0  0  0  0  0  0
    6.6489    0.0030   19.9011 C   0  0  0  0  0  0  0  0  0  0  0  0
    5.4351    0.6460   20.1649 C   0  0  0  0  0  0  0  0  0  0  0  0
    4.8117    1.3115   19.1082 C   0  0  0  0  0  0  0  0  0  0  0  0
    5.4002    1.2956   17.8363 C   0  0  0  0  0  0  0  0  0  0  0  0
    6.5589    0.6717   17.5760 N   0  0  0  0  0  0  0  0  0  0  0  0
    7.1646    0.0504   18.5931 C   0  0  0  0  0  0  0  0  0  0  0  0
  1  2  1  0
  2  3  2  0
  3  4  1  0
  4  5  2  0
  5  6  1  0
  6  7  2  0
  7  8  1  0
  8  9  1  0
  9 10  2  0
 10 11  1  0
 11 12  1  0
 12 13  1  0
 13 14  1  0
 14 15  1  0
 15 16  1  0
 11 17  2  0
 17 18  1  0
 18 19  1  0
 19 20  2  0
 20 21  1  0
 21 22  2  0
 22 23  1  0
 23 24  2  0
  7  2  1  0
 18  9  1  0
 24 19  1  0
 16 12  1  0
M  END
>  <cnnaffinity>  (11) 
-6.77927

>  <filename>  (11) 
Fc1cccnc1Cc1nc(C2CCCC2)nn1-c1cccnc1

>  <enamine_id>  (11) 
PV-007075018023

$$$$

     RDKit          3D

 25 28  0  0  0  0  0  0  0  0999 V2000
   11.8075    2.8178   24.0017 C   0  0  0  0  0  0  0  0  0  0  0  0
   11.6349    1.7424   22.9795 C   0  0  0  0  0  0  0  0  0  0  0  0
   10.6172    1.7271   22.1385 N   0  0  0  0  0  0  0  0  0  0  0  0
   10.7329    0.5726   21.4495 N   0  0  0  0  0  0  0  0  0  0  0  0
    9.6137    0.1748   20.6165 C   0  0  0  0  0  0  0  0  0  0  0  0
    8.5928   -0.6276   21.3597 C   0  0  0  0  0  0  0  0  0  0  0  0
    8.8096   -1.4261   22.3819 N   0  0  0  0  0  0  0  0  0  0  0  0
    7.5925   -1.9850   22.6201 C   0  0  0  0  0  0  0  0  0  0  0  0
    7.3214   -2.9542   23.7411 C   0  0  0  0  0  0  0  0  0  0  0  0
    8.2603   -4.1866   23.7329 C   0  0  0  0  0  0  0  0  0  0  0  0
    9.5305   -3.7476   24.4936 C   0  0  0  0  0  0  0  0  0  0  0  0
    9.1117   -2.5464   25.3735 C   0  0  0  0  0  0  0  0  0  0  0  0
    7.6004   -2.3397   25.1365 C   0  0  0  0  0  0  0  0  0  0  0  0
    6.6490   -1.5956   21.7840 N   0  0  0  0  0  0  0  0  0  0  0  0
    7.2914   -0.7345   20.9501 N   0  0  0  0  0  0  0  0  0  0  0  0
    6.6025   -0.0591   19.9051 C   0  0  0  0  0  0  0  0  0  0  0  0
    5.3954    0.6107   20.1463 C   0  0  0  0  0  0  0  0  0  0  0  0
    4.8101    1.3124   19.0873 C   0  0  0  0  0  0  0  0  0  0  0  0
    5.4333    1.3011   17.8333 C   0  0  0  0  0  0  0  0  0  0  0  0
    6.5702    0.6331   17.5862 N   0  0  0  0  0  0  0  0  0  0  0  0
    7.1310   -0.0313   18.6022 C   0  0  0  0  0  0  0  0  0  0  0  0
   11.8160   -0.1544   21.8642 C   0  0  0  0  0  0  0  0  0  0  0  0
   12.1843   -1.4782   21.2602 C   0  0  0  0  0  0  0  0  0  0  0  0
   12.4479    0.5908   22.8462 C   0  0  0  0  0  0  0  0  0  0  0  0
   13.7076    0.3301   23.6226 C   0  0  0  0  0  0  0  0  0  0  0  0
  1  2  1  0
  2  3  2  0
  3  4  1  0
  4  5  1  0
  5  6  1  0
  6  7  2  0
  7  8  1  0
  8  9  1  0
  9 10  1  0
 10 11  1  0
 11 12  1  0
 12 13  1  0
  8 14  2  0
 14 15  1  0
 15 16  1  0
 16 17  2  0
 17 18  1  0
 18 19  2  0
 19 20  1  0
 20 21  2  0
  4 22  1  0
 22 23  1  0
 22 24  2  0
 24 25  1  0
 24  2  1  0
 15  6  1  0
 21 16  1  0
 13  9  1  0
M  END
>  <cnnaffinity>  (12) 
-6.76414

>  <filename>  (12) 
Cc1nn(Cc2nc(C3CCCC3)nn2-c2cccnc2)c(C)c1C

>  <enamine_id>  (12) 
PV-007175039659

$$$$

     RDKit          3D

 25 28  0  0  0  0  0  0  0  0999 V2000
   12.3078   -1.1370   21.4285 C   0  0  0  0  0  0  0  0  0  0  0  0
   11.8404    0.1605   22.0212 C   0  0  0  0  0  0  0  0  0  0  0  0
   12.3790    0.8761   23.0615 C   0  0  0  0  0  0  0  0  0  0  0  0
   11.4666    1.9219   23.3759 C   0  0  0  0  0  0  0  0  0  0  0  0
   10.4020    1.8333   22.5170 C   0  0  0  0  0  0  0  0  0  0  0  0
    9.1493    2.6572   22.4675 C   0  0  0  0  0  0  0  0  0  0  0  0
   10.6472    0.7714   21.6645 N   0  0  0  0  0  0  0  0  0  0  0  0
    9.6730    0.2438   20.7386 C   0  0  0  0  0  0  0  0  0  0  0  0
    8.6278   -0.5907   21.3901 C   0  0  0  0  0  0  0  0  0  0  0  0
    8.8495   -1.4519   22.3576 N   0  0  0  0  0  0  0  0  0  0  0  0
    7.6215   -1.9956   22.5701 C   0  0  0  0  0  0  0  0  0  0  0  0
    7.3829   -2.9424   23.6998 C   0  0  2  0  0  0  0  0  0  0  0  0
    7.5012   -2.2038   25.0679 C   0  0  0  0  0  0  0  0  0  0  0  0
    7.5071   -3.1638   26.2333 C   0  0  0  0  0  0  0  0  0  0  0  0
    7.7611   -4.4697   26.1083 C   0  0  0  0  0  0  0  0  0  0  0  0
    8.0248   -5.1461   24.7806 C   0  0  0  0  0  0  0  0  0  0  0  0
    8.3629   -4.1411   23.6659 C   0  0  0  0  0  0  0  0  0  0  0  0
    6.6779   -1.5625   21.7619 N   0  0  0  0  0  0  0  0  0  0  0  0
    7.3316   -0.6701   20.9684 N   0  0  0  0  0  0  0  0  0  0  0  0
    6.6543   -0.0030   19.9054 C   0  0  0  0  0  0  0  0  0  0  0  0
    5.4367    0.6407   20.1554 C   0  0  0  0  0  0  0  0  0  0  0  0
    4.8059    1.3111   19.1040 C   0  0  0  0  0  0  0  0  0  0  0  0
    5.3992    1.2955   17.8349 C   0  0  0  0  0  0  0  0  0  0  0  0
    6.5505    0.6577   17.5766 N   0  0  0  0  0  0  0  0  0  0  0  0
    7.1604    0.0314   18.5899 C   0  0  0  0  0  0  0  0  0  0  0  0
  1  2  1  0
  2  3  2  0
  3  4  1  0
  4  5  2  0
  5  6  1  0
  5  7  1  0
  7  8  1  0
  8  9  1  0
  9 10  2  0
 10 11  1  0
 12 11  1  6
 12 13  1  0
 13 14  1  0
 14 15  2  0
 15 16  1  0
 16 17  1  0
 11 18  2  0
 18 19  1  0
 19 20  1  0
 20 21  2  0
 21 22  1  0
 22 23  2  0
 23 24  1  0
 24 25  2  0
  7  2  1  0
 19  9  1  0
 25 20  1  0
 17 12  1  0
M  END
>  <cnnaffinity>  (13) 
-6.76039

>  <filename>  (13) 
Cc1ccc(C)n1Cc1nc(C2CC=CCC2)nn1-c1cccnc1

>  <enamine_id>  (13) 
PV-006994482809

$$$$

     RDKit          3D

 26 29  0  0  0  0  0  0  0  0999 V2000
    8.0603    1.9232   23.2502 C   0  0  0  0  0  0  0  0  0  0  0  0
    9.3790    2.7691   22.3379 S   0  0  0  0  0  0  0  0  0  0  0  0
    8.8736    2.8415   20.9233 O   0  0  0  0  0  0  0  0  0  0  0  0
   10.7112    1.5274   22.4242 C   0  0  0  0  0  0  0  0  0  0  0  0
   11.7554    1.7971   23.3190 C   0  0  0  0  0  0  0  0  0  0  0  0
   12.8763    0.9634   23.3713 C   0  0  0  0  0  0  0  0  0  0  0  0
   12.9608   -0.1442   22.5273 C   0  0  0  0  0  0  0  0  0  0  0  0
   11.9046   -0.4174   21.6532 C   0  0  0  0  0  0  0  0  0  0  0  0
   10.7752    0.4110   21.5678 C   0  0  0  0  0  0  0  0  0  0  0  0
    9.6390    0.0249   20.6462 C   0  0  0  0  0  0  0  0  0  0  0  0
    8.5400   -0.6892   21.3613 C   0  0  0  0  0  0  0  0  0  0  0  0
    8.6864   -1.4013   22.4540 N   0  0  0  0  0  0  0  0  0  0  0  0
    7.4605   -1.9661   22.6460 C   0  0  0  0  0  0  0  0  0  0  0  0
    7.2715   -2.9021   23.8042 C   0  0  0  0  0  0  0  0  0  0  0  0
    7.5617   -2.2134   25.1582 C   0  0  0  0  0  0  0  0  0  0  0  0
    7.8998   -3.3467   26.1440 C   0  0  0  0  0  0  0  0  0  0  0  0
    8.3142   -4.5607   25.2749 C   0  0  0  0  0  0  0  0  0  0  0  0
    8.2890   -4.0694   23.8182 C   0  0  0  0  0  0  0  0  0  0  0  0
    6.5516   -1.6118   21.7613 N   0  0  0  0  0  0  0  0  0  0  0  0
    7.2473   -0.7953   20.9159 N   0  0  0  0  0  0  0  0  0  0  0  0
    6.5828   -0.0907   19.8734 C   0  0  0  0  0  0  0  0  0  0  0  0
    5.3930    0.6009   20.1311 C   0  0  0  0  0  0  0  0  0  0  0  0
    4.8083    1.3140   19.0824 C   0  0  0  0  0  0  0  0  0  0  0  0
    5.4175    1.3083   17.8217 C   0  0  0  0  0  0  0  0  0  0  0  0
    6.5475    0.6349   17.5598 N   0  0  0  0  0  0  0  0  0  0  0  0
    7.1104   -0.0411   18.5682 C   0  0  0  0  0  0  0  0  0  0  0  0
  2  1  1  1
  2  3  2  0
  2  4  1  0
  4  5  2  0
  5  6  1  0
  6  7  2  0
  7  8  1  0
  8  9  2  0
  9 10  1  0
 10 11  1  0
 11 12  2  0
 12 13  1  0
 13 14  1  0
 14 15  1  0
 15 16  1  0
 16 17  1  0
 17 18  1  0
 13 19  2  0
 19 20  1  0
 20 21  1  0
 21 22  2  0
 22 23  1  0
 23 24  2  0
 24 25  1  0
 25 26  2  0
  9  4  1  0
 20 11  1  0
 26 21  1  0
 18 14  1  0
M  END
>  <cnnaffinity>  (14) 
-6.7346

>  <filename>  (14) 
CS(=O)c1ccccc1Cc1nc(C2CCCC2)nn1-c1cccnc1

>  <enamine_id>  (14) 
PV-007095858650

$$$$

     RDKit          3D

 24 27  0  0  0  0  0  0  0  0999 V2000
   12.2866   -1.4188   21.2032 C   0  0  0  0  0  0  0  0  0  0  0  0
   11.8640   -0.1281   21.8619 C   0  0  0  0  0  0  0  0  0  0  0  0
   12.5072    0.5539   22.8468 C   0  0  0  0  0  0  0  0  0  0  0  0
   14.2066    0.2029   23.6252 Br  0  0  0  0  0  0  0  0  0  0  0  0
   11.6748    1.6879   23.1561 C   0  0  0  0  0  0  0  0  0  0  0  0
   10.6041    1.7092   22.3972 N   0  0  0  0  0  0  0  0  0  0  0  0
   10.7117    0.6080   21.5981 N   0  0  0  0  0  0  0  0  0  0  0  0
    9.6573    0.2105   20.6578 C   0  0  0  0  0  0  0  0  0  0  0  0
    8.6300   -0.6200   21.3225 C   0  0  0  0  0  0  0  0  0  0  0  0
    8.8785   -1.4351   22.3006 N   0  0  0  0  0  0  0  0  0  0  0  0
    7.6288   -1.9652   22.5716 C   0  0  0  0  0  0  0  0  0  0  0  0
    7.3837   -2.9434   23.6903 C   0  0  0  0  0  0  0  0  0  0  0  0
    7.7293   -2.3802   25.0690 C   0  0  0  0  0  0  0  0  0  0  0  0
    8.0301   -3.5915   25.9448 C   0  0  0  0  0  0  0  0  0  0  0  0
    8.3445   -4.7518   25.0023 C   0  0  0  0  0  0  0  0  0  0  0  0
    8.2338   -4.2092   23.5817 C   0  0  0  0  0  0  0  0  0  0  0  0
    6.6679   -1.5474   21.7831 N   0  0  0  0  0  0  0  0  0  0  0  0
    7.2967   -0.6930   20.9492 N   0  0  0  0  0  0  0  0  0  0  0  0
    6.6590    0.0023   19.9153 C   0  0  0  0  0  0  0  0  0  0  0  0
    5.4425    0.6394   20.1600 C   0  0  0  0  0  0  0  0  0  0  0  0
    4.8248    1.2990   19.0988 C   0  0  0  0  0  0  0  0  0  0  0  0
    5.4056    1.2958   17.8252 C   0  0  0  0  0  0  0  0  0  0  0  0
    6.5782    0.6779   17.5838 N   0  0  0  0  0  0  0  0  0  0  0  0
    7.1903    0.0594   18.6120 C   0  0  0  0  0  0  0  0  0  0  0  0
  1  2  1  0
  2  3  2  0
  3  4  1  0
  3  5  1  0
  5  6  2  0
  6  7  1  0
  7  8  1  0
  8  9  1  0
  9 10  2  0
 10 11  1  0
 11 12  1  0
 12 13  1  0
 13 14  1  0
 14 15  1  0
 15 16  1  0
 11 17  2  0
 17 18  1  0
 18 19  1  0
 19 20  2  0
 20 21  1  0
 21 22  2  0
 22 23  1  0
 23 24  2  0
  7  2  1  0
 18  9  1  0
 24 19  1  0
 16 12  1  0
M  END
>  <cnnaffinity>  (15) 
-6.73316

>  <filename>  (15) 
Cc1c(Br)cnn1Cc1nc(C2CCCC2)nn1-c1cccnc1

>  <enamine_id>  (15) 
PV-006984773606

$$$$

     RDKit          3D

 25 28  0  0  0  0  0  0  0  0999 V2000
   10.5663    2.8566   21.6288 O   0  0  0  0  0  0  0  0  0  0  0  0
   11.5355    1.8321   21.4217 C   0  0  1  0  0  0  0  0  0  0  0  0
   12.7344    2.1000   22.3538 C   0  0  0  0  0  0  0  0  0  0  0  0
   13.6618    0.8959   22.5820 C   0  0  0  0  0  0  0  0  0  0  0  0
   12.8660   -0.3741   22.8921 C   0  0  0  0  0  0  0  0  0  0  0  0
   11.7803   -0.6953   21.8577 C   0  0  0  0  0  0  0  0  0  0  0  0
   10.8184    0.5015   21.7345 C   0  0  2  0  0  0  0  0  0  0  0  0
    9.6400    0.2154   20.7716 C   0  0  0  0  0  0  0  0  0  0  0  0
    8.5816   -0.6312   21.3903 C   0  0  0  0  0  0  0  0  0  0  0  0
    8.7435   -1.4162   22.4371 N   0  0  0  0  0  0  0  0  0  0  0  0
    7.5338   -1.9919   22.5909 C   0  0  0  0  0  0  0  0  0  0  0  0
    7.2845   -2.9492   23.7129 C   0  0  1  0  0  0  0  0  0  0  0  0
    6.4887   -2.2794   24.8669 C   0  0  0  0  0  0  0  0  0  0  0  0
    5.9912   -3.2802   25.8823 C   0  0  0  0  0  0  0  0  0  0  0  0
    6.0007   -4.5993   25.6879 C   0  0  0  0  0  0  0  0  0  0  0  0
    6.4895   -5.2531   24.4124 C   0  0  0  0  0  0  0  0  0  0  0  0
    6.6222   -4.2614   23.2418 C   0  0  0  0  0  0  0  0  0  0  0  0
    6.6242   -1.6156   21.7143 N   0  0  0  0  0  0  0  0  0  0  0  0
    7.3040   -0.7478   20.9199 N   0  0  0  0  0  0  0  0  0  0  0  0
    6.6259   -0.0531   19.8757 C   0  0  0  0  0  0  0  0  0  0  0  0
    5.4188    0.6086   20.1329 C   0  0  0  0  0  0  0  0  0  0  0  0
    4.8131    1.3091   19.0877 C   0  0  0  0  0  0  0  0  0  0  0  0
    5.4182    1.3104   17.8244 C   0  0  0  0  0  0  0  0  0  0  0  0
    6.5610    0.6576   17.5629 N   0  0  0  0  0  0  0  0  0  0  0  0
    7.1410   -0.0066   18.5680 C   0  0  0  0  0  0  0  0  0  0  0  0
  2  1  1  1
  2  3  1  0
  3  4  1  0
  4  5  1  0
  5  6  1  0
  6  7  1  0
  7  8  1  6
  8  9  1  0
  9 10  2  0
 10 11  1  0
 12 11  1  6
 12 13  1  0
 13 14  1  0
 14 15  2  0
 15 16  1  0
 16 17  1  0
 11 18  2  0
 18 19  1  0
 19 20  1  0
 20 21  2  0
 21 22  1  0
 22 23  2  0
 23 24  1  0
 24 25  2  0
  7  2  1  0
 19  9  1  0
 25 20  1  0
 17 12  1  0
M  END
>  <cnnaffinity>  (16) 
-6.7324

>  <filename>  (16) 
O[C@H]1CCCC[C@@H]1Cc1nc(C2CC=CCC2)nn1-c1cccnc1

>  <enamine_id>  (16) 
PV-006864101963

$$$$

     RDKit          3D

 26 29  0  0  0  0  0  0  0  0999 V2000
    8.6066    2.7080   22.0498 C   0  0  0  0  0  0  0  0  0  0  0  0
    9.9346    2.1293   22.4429 C   0  0  0  0  0  0  0  0  0  0  0  0
   10.6279    2.7744   23.3834 N   0  0  0  0  0  0  0  0  0  0  0  0
   11.7607    2.2057   23.7825 C   0  0  0  0  0  0  0  0  0  0  0  0
   12.2477    1.0407   23.3748 N   0  0  0  0  0  0  0  0  0  0  0  0
   11.5413    0.3862   22.4467 C   0  0  0  0  0  0  0  0  0  0  0  0
   12.0289   -0.9888   22.0990 C   0  0  0  0  0  0  0  0  0  0  0  0
   10.3974    0.9418   21.8601 C   0  0  0  0  0  0  0  0  0  0  0  0
    9.5916    0.1996   20.8039 C   0  0  0  0  0  0  0  0  0  0  0  0
    8.5279   -0.7107   21.3554 C   0  0  0  0  0  0  0  0  0  0  0  0
    8.7282   -1.5665   22.3355 N   0  0  0  0  0  0  0  0  0  0  0  0
    7.5050   -2.1249   22.5325 C   0  0  0  0  0  0  0  0  0  0  0  0
    7.3190   -3.1353   23.6223 C   0  0  1  0  0  0  0  0  0  0  0  0
    8.1781   -4.4092   23.3727 C   0  0  0  0  0  0  0  0  0  0  0  0
    8.2318   -5.3173   24.5780 C   0  0  0  0  0  0  0  0  0  0  0  0
    7.8769   -4.9371   25.8056 C   0  0  0  0  0  0  0  0  0  0  0  0
    7.4077   -3.5393   26.1377 C   0  0  0  0  0  0  0  0  0  0  0  0
    7.6764   -2.5332   25.0066 C   0  0  0  0  0  0  0  0  0  0  0  0
    6.5689   -1.6902   21.7136 N   0  0  0  0  0  0  0  0  0  0  0  0
    7.2399   -0.8085   20.9208 N   0  0  0  0  0  0  0  0  0  0  0  0
    6.5769   -0.1146   19.8696 C   0  0  0  0  0  0  0  0  0  0  0  0
    5.3935    0.5829   20.1250 C   0  0  0  0  0  0  0  0  0  0  0  0
    4.8196    1.3135   19.0803 C   0  0  0  0  0  0  0  0  0  0  0  0
    5.4316    1.3003   17.8206 C   0  0  0  0  0  0  0  0  0  0  0  0
    6.5497    0.6067   17.5589 N   0  0  0  0  0  0  0  0  0  0  0  0
    7.1039   -0.0819   18.5649 C   0  0  0  0  0  0  0  0  0  0  0  0
  1  2  1  0
  2  3  2  0
  3  4  1  0
  4  5  2  0
  5  6  1  0
  6  7  1  0
  6  8  2  0
  8  9  1  0
  9 10  1  0
 10 11  2  0
 11 12  1  0
 13 12  1  6
 13 14  1  0
 14 15  1  0
 15 16  2  0
 16 17  1  0
 17 18  1  0
 12 19  2  0
 19 20  1  0
 20 21  1  0
 21 22  2  0
 22 23  1  0
 23 24  2  0
 24 25  1  0
 25 26  2  0
  8  2  1  0
 20 10  1  0
 26 21  1  0
 18 13  1  0
M  END
>  <cnnaffinity>  (17) 
-6.73067

>  <filename>  (17) 
Cc1ncnc(C)c1Cc1nc(C2CC=CCC2)nn1-c1cccnc1

>  <enamine_id>  (17) 
PV-007091729455

$$$$

     RDKit          3D

 25 28  0  0  0  0  0  0  0  0999 V2000
    6.1897   -4.2889   22.1990 C   0  0  0  0  0  0  0  0  0  0  0  0
    7.6506   -4.6262   22.4596 C   0  0  0  0  0  0  0  0  0  0  0  0
    8.1131   -5.9149   21.8052 C   0  0  0  0  0  0  0  0  0  0  0  0
    8.2636   -4.1883   23.7609 C   0  0  0  0  0  0  0  0  0  0  0  0
    8.6161   -3.4570   22.4841 C   0  0  2  0  0  0  0  0  0  0  0  0
    8.1271   -2.0994   22.1357 C   0  0  0  0  0  0  0  0  0  0  0  0
    7.7118   -1.7934   20.9203 N   0  0  0  0  0  0  0  0  0  0  0  0
    7.2696   -0.5128   21.0648 N   0  0  0  0  0  0  0  0  0  0  0  0
    6.6046    0.0965   19.9615 C   0  0  0  0  0  0  0  0  0  0  0  0
    5.3806    0.7579   20.1146 C   0  0  0  0  0  0  0  0  0  0  0  0
    4.8096    1.3642   18.9892 C   0  0  0  0  0  0  0  0  0  0  0  0
    5.4795    1.2783   17.7650 C   0  0  0  0  0  0  0  0  0  0  0  0
    6.6195    0.5821   17.5993 N   0  0  0  0  0  0  0  0  0  0  0  0
    7.1514   -0.0171   18.6700 C   0  0  0  0  0  0  0  0  0  0  0  0
    7.5223   -0.1001   22.3476 C   0  0  0  0  0  0  0  0  0  0  0  0
    7.2777    1.2242   23.0103 C   0  0  0  0  0  0  0  0  0  0  0  0
    8.5594    1.7681   23.6194 C   0  0  0  0  0  0  0  0  0  0  0  0
    9.5839    2.3041   22.8219 C   0  0  0  0  0  0  0  0  0  0  0  0
    9.3167    2.5063   21.1258 Cl  0  0  0  0  0  0  0  0  0  0  0  0
   10.8363    2.6176   23.3650 C   0  0  0  0  0  0  0  0  0  0  0  0
   11.1333    2.3765   24.6455 N   0  0  0  0  0  0  0  0  0  0  0  0
   10.1726    1.8733   25.4308 C   0  0  0  0  0  0  0  0  0  0  0  0
    8.8822    1.6132   24.9726 C   0  0  0  0  0  0  0  0  0  0  0  0
    7.9591    1.1984   25.8569 F   0  0  0  0  0  0  0  0  0  0  0  0
    8.0595   -1.0936   23.0304 N   0  0  0  0  0  0  0  0  0  0  0  0
  1  2  1  0
  2  3  1  0
  2  4  1  0
  4  5  1  0
  5  6  1  1
  6  7  2  0
  7  8  1  0
  8  9  1  0
  9 10  2  0
 10 11  1  0
 11 12  2  0
 12 13  1  0
 13 14  2  0
  8 15  1  0
 15 16  1  0
 16 17  1  0
 17 18  2  0
 18 19  1  0
 18 20  1  0
 20 21  2  0
 21 22  1  0
 22 23  2  0
 23 24  1  0
 15 25  2  0
  5  2  1  0
 25  6  1  0
 14  9  1  0
 23 17  1  0
M  END
>  <cnnaffinity>  (18) 
-6.72766

>  <filename>  (18) 
CC1(C)CC1c1nc(Cc2c(F)cncc2Cl)n(-c2cccnc2)n1

>  <enamine_id>  (18) 
PV-006760468844

$$$$

     RDKit          3D

 24 27  0  0  0  0  0  0  0  0999 V2000
   12.2741   -1.4053   21.1864 C   0  0  0  0  0  0  0  0  0  0  0  0
   11.8843   -0.1363   21.8727 C   0  0  0  0  0  0  0  0  0  0  0  0
   12.5075    0.5606   22.8830 C   0  0  0  0  0  0  0  0  0  0  0  0
   14.0210    0.1736   23.6020 Cl  0  0  0  0  0  0  0  0  0  0  0  0
   11.6886    1.6715   23.1550 C   0  0  0  0  0  0  0  0  0  0  0  0
   10.6257    1.6703   22.3649 N   0  0  0  0  0  0  0  0  0  0  0  0
   10.7636    0.5837   21.5828 N   0  0  0  0  0  0  0  0  0  0  0  0
    9.6737    0.2232   20.6995 C   0  0  0  0  0  0  0  0  0  0  0  0
    8.6419   -0.6085   21.3641 C   0  0  0  0  0  0  0  0  0  0  0  0
    8.8531   -1.4727   22.3261 N   0  0  0  0  0  0  0  0  0  0  0  0
    7.6139   -1.9787   22.5646 C   0  0  0  0  0  0  0  0  0  0  0  0
    7.3874   -2.9411   23.6825 C   0  0  0  0  0  0  0  0  0  0  0  0
    7.7320   -2.3682   25.0779 C   0  0  0  0  0  0  0  0  0  0  0  0
    8.0269   -3.5931   25.9640 C   0  0  0  0  0  0  0  0  0  0  0  0
    8.3452   -4.7713   25.0081 C   0  0  0  0  0  0  0  0  0  0  0  0
    8.2416   -4.2218   23.5741 C   0  0  0  0  0  0  0  0  0  0  0  0
    6.6737   -1.5307   21.7611 N   0  0  0  0  0  0  0  0  0  0  0  0
    7.3426   -0.6749   20.9430 N   0  0  0  0  0  0  0  0  0  0  0  0
    6.6583    0.0092   19.9040 C   0  0  0  0  0  0  0  0  0  0  0  0
    5.4384    0.6464   20.1654 C   0  0  0  0  0  0  0  0  0  0  0  0
    4.8126    1.3109   19.1089 C   0  0  0  0  0  0  0  0  0  0  0  0
    5.4019    1.2957   17.8374 C   0  0  0  0  0  0  0  0  0  0  0  0
    6.5610    0.6729   17.5788 N   0  0  0  0  0  0  0  0  0  0  0  0
    7.1704    0.0535   18.5944 C   0  0  0  0  0  0  0  0  0  0  0  0
  1  2  1  0
  2  3  2  0
  3  4  1  0
  3  5  1  0
  5  6  2  0
  6  7  1  0
  7  8  1  0
  8  9  1  0
  9 10  2  0
 10 11  1  0
 11 12  1  0
 12 13  1  0
 13 14  1  0
 14 15  1  0
 15 16  1  0
 11 17  2  0
 17 18  1  0
 18 19  1  0
 19 20  2  0
 20 21  1  0
 21 22  2  0
 22 23  1  0
 23 24  2  0
  7  2  1  0
 18  9  1  0
 24 19  1  0
 16 12  1  0
M  END
>  <cnnaffinity>  (19) 
-6.72132

>  <filename>  (19) 
Cc1c(Cl)cnn1Cc1nc(C2CCCC2)nn1-c1cccnc1

>  <enamine_id>  (19) 
PV-007172162306

$$$$

     RDKit          3D

 25 28  0  0  0  0  0  0  0  0999 V2000
   11.9644    2.7240   24.1655 C   0  0  0  0  0  0  0  0  0  0  0  0
   11.6880    1.6722   23.1527 C   0  0  0  0  0  0  0  0  0  0  0  0
   10.6194    1.6618   22.3706 N   0  0  0  0  0  0  0  0  0  0  0  0
   10.7620    0.5805   21.5771 N   0  0  0  0  0  0  0  0  0  0  0  0
    9.6799    0.2191   20.6899 C   0  0  0  0  0  0  0  0  0  0  0  0
    8.6515   -0.6110   21.3546 C   0  0  0  0  0  0  0  0  0  0  0  0
    8.8733   -1.4927   22.3005 N   0  0  0  0  0  0  0  0  0  0  0  0
    7.6399   -2.0019   22.5433 C   0  0  0  0  0  0  0  0  0  0  0  0
    7.4017   -3.0039   23.6362 C   0  0  0  0  0  0  0  0  0  0  0  0
    8.3851   -2.9139   24.8244 C   0  0  0  0  0  0  0  0  0  0  0  0
    7.6565   -3.5719   26.0105 C   0  0  0  0  0  0  0  0  0  0  0  0
    6.1446   -3.5520   25.6716 C   0  0  0  0  0  0  0  0  0  0  0  0
    6.0102   -2.8978   24.2866 C   0  0  0  0  0  0  0  0  0  0  0  0
    6.6921   -1.5424   21.7440 N   0  0  0  0  0  0  0  0  0  0  0  0
    7.3521   -0.6722   20.9403 N   0  0  0  0  0  0  0  0  0  0  0  0
    6.6590    0.0088   19.9050 C   0  0  0  0  0  0  0  0  0  0  0  0
    5.4385    0.6435   20.1683 C   0  0  0  0  0  0  0  0  0  0  0  0
    4.8135    1.3090   19.1105 C   0  0  0  0  0  0  0  0  0  0  0  0
    5.4018    1.2951   17.8383 C   0  0  0  0  0  0  0  0  0  0  0  0
    6.5613    0.6728   17.5772 N   0  0  0  0  0  0  0  0  0  0  0  0
    7.1692    0.0532   18.5942 C   0  0  0  0  0  0  0  0  0  0  0  0
   11.8851   -0.1355   21.8592 C   0  0  0  0  0  0  0  0  0  0  0  0
   12.2879   -1.3985   21.1719 C   0  0  0  0  0  0  0  0  0  0  0  0
   12.5064    0.5615   22.8680 C   0  0  0  0  0  0  0  0  0  0  0  0
   14.0268    0.1949   23.5885 Cl  0  0  0  0  0  0  0  0  0  0  0  0
  1  2  1  0
  2  3  2  0
  3  4  1  0
  4  5  1  0
  5  6  1  0
  6  7  2  0
  7  8  1  0
  8  9  1  0
  9 10  1  0
 10 11  1  0
 11 12  1  0
 12 13  1  0
  8 14  2  0
 14 15  1  0
 15 16  1  0
 16 17  2  0
 17 18  1  0
 18 19  2  0
 19 20  1  0
 20 21  2  0
  4 22  1  0
 22 23  1  0
 22 24  2  0
 24 25  1  0
 24  2  1  0
 15  6  1  0
 21 16  1  0
 13  9  1  0
M  END
>  <cnnaffinity>  (20) 
-6.71912

>  <filename>  (20) 
Cc1nn(Cc2nc(C3CCCC3)nn2-c2cccnc2)c(C)c1Cl

>  <enamine_id>  (20) 
PV-006829639946

$$$$

     RDKit          3D

 24 27  0  0  0  0  0  0  0  0999 V2000
    9.8128    1.1566   25.0109 Cl  0  0  0  0  0  0  0  0  0  0  0  0
    8.0927    1.2922   25.2105 C   0  0  0  0  0  0  0  0  0  0  0  0
    7.5838    1.2520   26.5106 C   0  0  0  0  0  0  0  0  0  0  0  0
    6.2050    1.3442   26.6672 C   0  0  0  0  0  0  0  0  0  0  0  0
    5.3557    1.4860   25.6445 N   0  0  0  0  0  0  0  0  0  0  0  0
    5.8705    1.5184   24.4117 C   0  0  0  0  0  0  0  0  0  0  0  0
    7.2344    1.4124   24.1013 C   0  0  0  0  0  0  0  0  0  0  0  0
    7.7042    1.3179   22.6490 C   0  0  0  0  0  0  0  0  0  0  0  0
    7.7520   -0.0964   22.1267 C   0  0  0  0  0  0  0  0  0  0  0  0
    8.3340   -1.0697   22.7982 N   0  0  0  0  0  0  0  0  0  0  0  0
    8.1646   -2.1565   22.0135 C   0  0  0  0  0  0  0  0  0  0  0  0
    8.6947   -3.5108   22.4115 C   0  0  0  0  0  0  0  0  0  0  0  0
    8.7081   -3.8235   23.9332 C   0  0  0  0  0  0  0  0  0  0  0  0
    8.6227   -5.3669   24.0623 C   0  0  0  0  0  0  0  0  0  0  0  0
    8.3073   -5.9164   22.6536 C   0  0  0  0  0  0  0  0  0  0  0  0
    7.9337   -4.7047   21.7910 C   0  0  0  0  0  0  0  0  0  0  0  0
    7.5783   -1.9033   20.8518 N   0  0  0  0  0  0  0  0  0  0  0  0
    7.2742   -0.5818   20.9365 N   0  0  0  0  0  0  0  0  0  0  0  0
    6.5777    0.0411   19.8544 C   0  0  0  0  0  0  0  0  0  0  0  0
    5.3703    0.7221   20.0531 C   0  0  0  0  0  0  0  0  0  0  0  0
    4.7786    1.3728   18.9641 C   0  0  0  0  0  0  0  0  0  0  0  0
    5.4129    1.3253   17.7217 C   0  0  0  0  0  0  0  0  0  0  0  0
    6.5410    0.6245   17.5099 N   0  0  0  0  0  0  0  0  0  0  0  0
    7.0895   -0.0232   18.5441 C   0  0  0  0  0  0  0  0  0  0  0  0
  1  2  1  0
  2  3  2  0
  3  4  1  0
  4  5  2  0
  5  6  1  0
  6  7  2  0
  7  8  1  0
  8  9  1  0
  9 10  2  0
 10 11  1  0
 11 12  1  0
 12 13  1  0
 13 14  1  0
 14 15  1  0
 15 16  1  0
 11 17  2  0
 17 18  1  0
 18 19  1  0
 19 20  2  0
 20 21  1  0
 21 22  2  0
 22 23  1  0
 23 24  2  0
  7  2  1  0
 18  9  1  0
 24 19  1  0
 16 12  1  0
M  END
>  <cnnaffinity>  (21) 
-6.71613

>  <filename>  (21) 
Clc1ccncc1Cc1nc(C2CCCC2)nn1-c1cccnc1

>  <enamine_id>  (21) 
PV-006758567354

$$$$

     RDKit          3D

 27 30  0  0  0  0  0  0  0  0999 V2000
    6.8046    5.7011   25.0458 Cl  0  0  0  0  0  0  0  0  0  0  0  0
    6.9324    3.9729   24.9526 C   0  0  0  0  0  0  0  0  0  0  0  0
    5.7767    3.2179   24.7175 C   0  0  0  0  0  0  0  0  0  0  0  0
    5.8939    1.8308   24.6505 C   0  0  0  0  0  0  0  0  0  0  0  0
    7.1668    1.2598   24.8092 C   0  0  0  0  0  0  0  0  0  0  0  0
    7.3457   -0.1508   24.7059 N   0  0  0  0  0  0  0  0  0  0  0  0
    6.5364   -0.9905   25.4018 N   0  0  0  0  0  0  0  0  0  0  0  0
    6.9455   -2.1892   25.0262 C   0  0  0  0  0  0  0  0  0  0  0  0
    6.2863   -3.4600   25.4971 C   0  0  0  0  0  0  0  0  0  0  0  0
    4.9048   -3.6763   24.8130 C   0  0  0  0  0  0  0  0  0  0  0  0
    4.0217   -4.6651   25.6058 C   0  0  0  0  0  0  0  0  0  0  0  0
    4.7937   -5.5152   26.4288 O   0  0  0  0  0  0  0  0  0  0  0  0
    5.4116   -4.8077   27.4917 C   0  0  0  0  0  0  0  0  0  0  0  0
    6.1386   -3.5176   27.0333 C   0  0  0  0  0  0  0  0  0  0  0  0
    7.9504   -2.1886   24.1157 N   0  0  0  0  0  0  0  0  0  0  0  0
    8.1729   -0.9021   23.9195 C   0  0  0  0  0  0  0  0  0  0  0  0
    9.0797   -0.3213   22.8909 C   0  0  0  0  0  0  0  0  0  0  0  0
    8.3057    0.3298   21.7339 C   0  0  0  0  0  0  0  0  0  0  0  0
    7.4052   -0.6746   20.9964 C   0  0  0  0  0  0  0  0  0  0  0  0
    6.6428   -0.0102   19.8876 C   0  0  0  0  0  0  0  0  0  0  0  0
    5.4328    0.6462   20.1432 C   0  0  0  0  0  0  0  0  0  0  0  0
    4.7987    1.3143   19.0952 C   0  0  0  0  0  0  0  0  0  0  0  0
    5.3957    1.2998   17.8292 C   0  0  0  0  0  0  0  0  0  0  0  0
    6.5592    0.6885   17.5634 N   0  0  0  0  0  0  0  0  0  0  0  0
    7.1596    0.0616   18.5844 C   0  0  0  0  0  0  0  0  0  0  0  0
    8.2404    2.1259   25.0618 C   0  0  0  0  0  0  0  0  0  0  0  0
    8.1357    3.4577   25.1269 N   0  0  0  0  0  0  0  0  0  0  0  0
  1  2  1  0
  2  3  2  0
  3  4  1  0
  4  5  2  0
  5  6  1  0
  6  7  1  0
  7  8  2  0
  8  9  1  0
  9 10  1  0
 10 11  1  0
 11 12  1  0
 12 13  1  0
 13 14  1  0
  8 15  1  0
 15 16  2  0
 16 17  1  0
 17 18  1  0
 18 19  1  0
 19 20  1  0
 20 21  2  0
 21 22  1  0
 22 23  2  0
 23 24  1  0
 24 25  2  0
  5 26  1  0
 26 27  2  0
 27  2  1  0
 16  6  1  0
 25 20  1  0
 14  9  1  0
M  END
>  <cnnaffinity>  (22) 
-6.71438

>  <filename>  (22) 
Clc1ccc(-n2nc(C3CCOCC3)nc2CCCc2cccnc2)cn1

>  <enamine_id>  (22) 
PV-005658357924

$$$$

     RDKit          3D

 25 27  0  0  0  0  0  0  0  0999 V2000
    7.9761    0.1020   25.3051 C   0  0  0  0  0  0  0  0  0  0  0  0
    8.1504   -1.2956   25.2928 O   0  0  0  0  0  0  0  0  0  0  0  0
    7.0241   -2.0887   24.9745 C   0  0  2  0  0  0  0  0  0  0  0  0
    6.7108   -2.9850   26.1628 C   0  0  0  0  0  0  0  0  0  0  0  0
    7.3507   -2.9015   23.7130 C   0  0  0  0  0  0  0  0  0  0  0  0
    7.5854   -1.9957   22.5710 C   0  0  0  0  0  0  0  0  0  0  0  0
    6.6339   -1.5893   21.7540 N   0  0  0  0  0  0  0  0  0  0  0  0
    7.2865   -0.7092   20.9457 N   0  0  0  0  0  0  0  0  0  0  0  0
    6.6178   -0.0369   19.8923 C   0  0  0  0  0  0  0  0  0  0  0  0
    5.4123    0.6251   20.1492 C   0  0  0  0  0  0  0  0  0  0  0  0
    4.7965    1.3129   19.1017 C   0  0  0  0  0  0  0  0  0  0  0  0
    5.3947    1.2957   17.8351 C   0  0  0  0  0  0  0  0  0  0  0  0
    6.5400    0.6468   17.5759 N   0  0  0  0  0  0  0  0  0  0  0  0
    7.1377    0.0089   18.5839 C   0  0  0  0  0  0  0  0  0  0  0  0
    8.5798   -0.6037   21.3669 C   0  0  0  0  0  0  0  0  0  0  0  0
    9.6373    0.2982   20.8290 C   0  0  0  0  0  0  0  0  0  0  0  0
   10.2540    1.1613   21.9150 C   0  0  0  0  0  0  0  0  0  0  0  0
    9.5828    2.2574   22.4921 C   0  0  0  0  0  0  0  0  0  0  0  0
    8.0282    2.7570   21.8847 Cl  0  0  0  0  0  0  0  0  0  0  0  0
   10.1280    2.9340   23.5964 C   0  0  0  0  0  0  0  0  0  0  0  0
   11.2973    2.5711   24.1507 N   0  0  0  0  0  0  0  0  0  0  0  0
   11.9664    1.5390   23.6121 C   0  0  0  0  0  0  0  0  0  0  0  0
   11.4799    0.8336   22.5079 C   0  0  0  0  0  0  0  0  0  0  0  0
   12.2037   -0.1932   22.0257 F   0  0  0  0  0  0  0  0  0  0  0  0
    8.7960   -1.4348   22.3619 N   0  0  0  0  0  0  0  0  0  0  0  0
  1  2  1  0
  2  3  1  0
  3  4  1  1
  3  5  1  0
  5  6  1  0
  6  7  2  0
  7  8  1  0
  8  9  1  0
  9 10  2  0
 10 11  1  0
 11 12  2  0
 12 13  1  0
 13 14  2  0
  8 15  1  0
 15 16  1  0
 16 17  1  0
 17 18  2  0
 18 19  1  0
 18 20  1  0
 20 21  2  0
 21 22  1  0
 22 23  2  0
 23 24  1  0
 15 25  2  0
 25  6  1  0
 14  9  1  0
 23 17  1  0
M  END
>  <cnnaffinity>  (23) 
-6.7111

>  <filename>  (23) 
COC(C)Cc1nc(Cc2c(F)cncc2Cl)n(-c2cccnc2)n1

>  <enamine_id>  (23) 
PV-007134010720

$$$$

     RDKit          3D

 24 27  0  0  0  0  0  0  0  0999 V2000
    8.1011    2.8080   21.8808 C   0  0  0  0  0  0  0  0  0  0  0  0
    9.3449    2.3344   22.4517 N   0  0  0  0  0  0  0  0  0  0  0  0
    9.8074    2.9171   23.5663 N   0  0  0  0  0  0  0  0  0  0  0  0
   10.9090    2.2546   23.8817 C   0  0  0  0  0  0  0  0  0  0  0  0
   11.1411    1.2166   22.9577 C   0  0  0  0  0  0  0  0  0  0  0  0
   12.4235    0.0607   22.9427 Cl  0  0  0  0  0  0  0  0  0  0  0  0
   10.1059    1.2852   22.0433 C   0  0  0  0  0  0  0  0  0  0  0  0
    9.6877    0.3367   20.9499 C   0  0  0  0  0  0  0  0  0  0  0  0
    8.6089   -0.6113   21.3915 C   0  0  0  0  0  0  0  0  0  0  0  0
    8.8115   -1.4746   22.3651 N   0  0  0  0  0  0  0  0  0  0  0  0
    7.6027   -2.0661   22.5303 C   0  0  0  0  0  0  0  0  0  0  0  0
    7.3550   -3.0513   23.6392 C   0  0  0  0  0  0  0  0  0  0  0  0
    7.3351   -2.3733   25.0319 C   0  0  0  0  0  0  0  0  0  0  0  0
    8.8019   -2.3375   25.4951 C   0  0  0  0  0  0  0  0  0  0  0  0
    9.5119   -3.4990   24.7714 C   0  0  0  0  0  0  0  0  0  0  0  0
    8.4795   -4.1022   23.7924 C   0  0  0  0  0  0  0  0  0  0  0  0
    6.6733   -1.6515   21.6926 N   0  0  0  0  0  0  0  0  0  0  0  0
    7.3242   -0.7247   20.9241 N   0  0  0  0  0  0  0  0  0  0  0  0
    6.6240   -0.0484   19.8744 C   0  0  0  0  0  0  0  0  0  0  0  0
    5.4140    0.6133   20.1322 C   0  0  0  0  0  0  0  0  0  0  0  0
    4.7981    1.3124   19.0862 C   0  0  0  0  0  0  0  0  0  0  0  0
    5.3960    1.3091   17.8217 C   0  0  0  0  0  0  0  0  0  0  0  0
    6.5262    0.6408   17.5520 N   0  0  0  0  0  0  0  0  0  0  0  0
    7.1203   -0.0212   18.5557 C   0  0  0  0  0  0  0  0  0  0  0  0
  1  2  1  0
  2  3  1  0
  3  4  2  0
  4  5  1  0
  5  6  1  0
  5  7  2  0
  7  8  1  0
  8  9  1  0
  9 10  2  0
 10 11  1  0
 11 12  1  0
 12 13  1  0
 13 14  1  0
 14 15  1  0
 15 16  1  0
 11 17  2  0
 17 18  1  0
 18 19  1  0
 19 20  2  0
 20 21  1  0
 21 22  2  0
 22 23  1  0
 23 24  2  0
  7  2  1  0
 18  9  1  0
 24 19  1  0
 16 12  1  0
M  END
>  <cnnaffinity>  (24) 
-6.70881

>  <filename>  (24) 
Cn1ncc(Cl)c1Cc1nc(C2CCCC2)nn1-c1cccnc1

>  <enamine_id>  (24) 
PV-007038809401

$$$$

     RDKit          3D

 25 28  0  0  0  0  0  0  0  0999 V2000
   13.3226   -1.7471   21.3545 C   0  0  0  0  0  0  0  0  0  0  0  0
   12.1456   -0.9903   21.1699 O   0  0  0  0  0  0  0  0  0  0  0  0
   11.8552    0.0796   21.9594 C   0  0  0  0  0  0  0  0  0  0  0  0
   12.6731    0.5067   23.0223 C   0  0  0  0  0  0  0  0  0  0  0  0
   12.3830    1.7026   23.6872 C   0  0  0  0  0  0  0  0  0  0  0  0
   11.2764    2.4631   23.3134 C   0  0  0  0  0  0  0  0  0  0  0  0
   10.4238    1.9866   22.3069 C   0  0  0  0  0  0  0  0  0  0  0  0
   10.6558    0.7714   21.6547 C   0  0  0  0  0  0  0  0  0  0  0  0
    9.6005    0.1998   20.7099 C   0  0  0  0  0  0  0  0  0  0  0  0
    8.5399   -0.6302   21.3713 C   0  0  0  0  0  0  0  0  0  0  0  0
    8.7393   -1.4470   22.3812 N   0  0  0  0  0  0  0  0  0  0  0  0
    7.5238   -2.0322   22.5651 C   0  0  0  0  0  0  0  0  0  0  0  0
    7.3299   -3.0396   23.6557 C   0  0  0  0  0  0  0  0  0  0  0  0
    8.2402   -4.2818   23.5131 C   0  0  0  0  0  0  0  0  0  0  0  0
    8.3210   -4.8932   24.9244 C   0  0  0  0  0  0  0  0  0  0  0  0
    7.9953   -3.7453   25.9137 C   0  0  0  0  0  0  0  0  0  0  0  0
    7.7157   -2.5002   25.0521 C   0  0  0  0  0  0  0  0  0  0  0  0
    6.5934   -1.6391   21.7230 N   0  0  0  0  0  0  0  0  0  0  0  0
    7.2478   -0.7501   20.9288 N   0  0  0  0  0  0  0  0  0  0  0  0
    6.5653   -0.0797   19.8713 C   0  0  0  0  0  0  0  0  0  0  0  0
    5.3625    0.5961   20.1130 C   0  0  0  0  0  0  0  0  0  0  0  0
    4.7873    1.3127   19.0593 C   0  0  0  0  0  0  0  0  0  0  0  0
    5.4040    1.3018   17.8022 C   0  0  0  0  0  0  0  0  0  0  0  0
    6.5248    0.6104   17.5480 N   0  0  0  0  0  0  0  0  0  0  0  0
    7.0813   -0.0631   18.5617 C   0  0  0  0  0  0  0  0  0  0  0  0
  1  2  1  0
  2  3  1  0
  3  4  2  0
  4  5  1  0
  5  6  2  0
  6  7  1  0
  7  8  2  0
  8  9  1  0
  9 10  1  0
 10 11  2  0
 11 12  1  0
 12 13  1  0
 13 14  1  0
 14 15  1  0
 15 16  1  0
 16 17  1  0
 12 18  2  0
 18 19  1  0
 19 20  1  0
 20 21  2  0
 21 22  1  0
 22 23  2  0
 23 24  1  0
 24 25  2  0
  8  3  1  0
 19 10  1  0
 25 20  1  0
 17 13  1  0
M  END
>  <cnnaffinity>  (25) 
-6.70205

>  <filename>  (25) 
COc1ccccc1Cc1nc(C2CCCC2)nn1-c1cccnc1

>  <enamine_id>  (25) 
PV-006848360859

$$$$

     RDKit          3D

 25 28  0  0  0  0  0  0  0  0999 V2000
   12.2080   -1.3459   21.1101 C   0  0  0  0  0  0  0  0  0  0  0  0
   11.9156   -0.0852   21.8816 C   0  0  0  0  0  0  0  0  0  0  0  0
   12.8245    0.3729   22.8394 C   0  0  0  0  0  0  0  0  0  0  0  0
   12.5347    1.5364   23.5528 C   0  0  0  0  0  0  0  0  0  0  0  0
   11.3423    2.2051   23.2742 C   0  0  0  0  0  0  0  0  0  0  0  0
   10.4552    1.7895   22.3569 N   0  0  0  0  0  0  0  0  0  0  0  0
   10.7361    0.6771   21.6722 C   0  0  0  0  0  0  0  0  0  0  0  0
    9.6759    0.2530   20.6913 C   0  0  0  0  0  0  0  0  0  0  0  0
    8.6563   -0.5892   21.3531 C   0  0  0  0  0  0  0  0  0  0  0  0
    8.8881   -1.4477   22.3223 N   0  0  0  0  0  0  0  0  0  0  0  0
    7.6620   -1.9752   22.5602 C   0  0  0  0  0  0  0  0  0  0  0  0
    7.3858   -2.9371   23.6783 C   0  0  1  0  0  0  0  0  0  0  0  0
    6.5570   -2.2749   24.8140 C   0  0  0  0  0  0  0  0  0  0  0  0
    6.0515   -3.2700   25.8291 C   0  0  0  0  0  0  0  0  0  0  0  0
    5.9933   -4.5848   25.6013 C   0  0  0  0  0  0  0  0  0  0  0  0
    6.4951   -5.2243   24.3272 C   0  0  0  0  0  0  0  0  0  0  0  0
    6.6794   -4.2169   23.1815 C   0  0  0  0  0  0  0  0  0  0  0  0
    6.7066   -1.5390   21.7571 N   0  0  0  0  0  0  0  0  0  0  0  0
    7.3558   -0.6745   20.9401 N   0  0  0  0  0  0  0  0  0  0  0  0
    6.6544    0.0002   19.9040 C   0  0  0  0  0  0  0  0  0  0  0  0
    5.4372    0.6404   20.1689 C   0  0  0  0  0  0  0  0  0  0  0  0
    4.8126    1.3083   19.1112 C   0  0  0  0  0  0  0  0  0  0  0  0
    5.4011    1.2944   17.8396 C   0  0  0  0  0  0  0  0  0  0  0  0
    6.5606    0.6720   17.5793 N   0  0  0  0  0  0  0  0  0  0  0  0
    7.1663    0.0500   18.5950 C   0  0  0  0  0  0  0  0  0  0  0  0
  1  2  1  0
  2  3  2  0
  3  4  1  0
  4  5  2  0
  5  6  1  0
  6  7  2  0
  7  8  1  0
  8  9  1  0
  9 10  2  0
 10 11  1  0
 12 11  1  6
 12 13  1  0
 13 14  1  0
 14 15  2  0
 15 16  1  0
 16 17  1  0
 11 18  2  0
 18 19  1  0
 19 20  1  0
 20 21  2  0
 21 22  1  0
 22 23  2  0
 23 24  1  0
 24 25  2  0
  7  2  1  0
 19  9  1  0
 25 20  1  0
 17 12  1  0
M  END
>  <cnnaffinity>  (26) 
-6.69204

>  <filename>  (26) 
Cc1cccnc1Cc1nc(C2CC=CCC2)nn1-c1cccnc1

>  <enamine_id>  (26) 
PV-006740176225

$$$$

     RDKit          3D

 25 28  0  0  0  0  0  0  0  0999 V2000
   12.2685   -1.2749   21.7411 C   0  0  0  0  0  0  0  0  0  0  0  0
   11.8033    0.1122   22.0483 C   0  0  0  0  0  0  0  0  0  0  0  0
   10.6849    0.7798   21.5806 C   0  0  0  0  0  0  0  0  0  0  0  0
    9.6231    0.2092   20.6682 C   0  0  0  0  0  0  0  0  0  0  0  0
    8.5868   -0.6407   21.3384 C   0  0  0  0  0  0  0  0  0  0  0  0
    8.7872   -1.4641   22.3491 N   0  0  0  0  0  0  0  0  0  0  0  0
    7.5658   -2.0149   22.5514 C   0  0  0  0  0  0  0  0  0  0  0  0
    7.3284   -3.0270   23.6294 C   0  0  2  0  0  0  0  0  0  0  0  0
    6.9924   -4.4205   23.0342 C   0  0  0  0  0  0  0  0  0  0  0  0
    6.4598   -5.3806   24.0664 C   0  0  0  0  0  0  0  0  0  0  0  0
    6.0926   -5.0242   25.3003 C   0  0  0  0  0  0  0  0  0  0  0  0
    6.1069   -3.5949   25.7914 C   0  0  0  0  0  0  0  0  0  0  0  0
    6.2481   -2.5809   24.6430 C   0  0  0  0  0  0  0  0  0  0  0  0
    6.6289   -1.6088   21.7124 N   0  0  0  0  0  0  0  0  0  0  0  0
    7.2972   -0.7525   20.8997 N   0  0  0  0  0  0  0  0  0  0  0  0
    6.6093   -0.0656   19.8639 C   0  0  0  0  0  0  0  0  0  0  0  0
    5.4108    0.6018   20.1370 C   0  0  0  0  0  0  0  0  0  0  0  0
    4.8082    1.3059   19.0908 C   0  0  0  0  0  0  0  0  0  0  0  0
    5.4003    1.3078   17.8200 C   0  0  0  0  0  0  0  0  0  0  0  0
    6.5349    0.6456   17.5461 N   0  0  0  0  0  0  0  0  0  0  0  0
    7.1147   -0.0190   18.5514 C   0  0  0  0  0  0  0  0  0  0  0  0
   10.6915    2.0034   22.2838 C   0  0  0  0  0  0  0  0  0  0  0  0
   11.7098    2.0851   23.1259 N   0  0  0  0  0  0  0  0  0  0  0  0
   12.3899    0.9349   22.9678 N   0  0  0  0  0  0  0  0  0  0  0  0
   13.4731    0.6703   23.9013 C   0  0  0  0  0  0  0  0  0  0  0  0
  1  2  1  0
  2  3  2  0
  3  4  1  0
  4  5  1  0
  5  6  2  0
  6  7  1  0
  8  7  1  6
  8  9  1  0
  9 10  1  0
 10 11  2  0
 11 12  1  0
 12 13  1  0
  7 14  2  0
 14 15  1  0
 15 16  1  0
 16 17  2  0
 17 18  1  0
 18 19  2  0
 19 20  1  0
 20 21  2  0
  3 22  1  0
 22 23  2  0
 23 24  1  0
 24 25  1  0
 24  2  1  0
 15  5  1  0
 21 16  1  0
 13  8  1  0
M  END
>  <cnnaffinity>  (27) 
-6.66775

>  <filename>  (27) 
Cc1c(Cc2nc(C3CC=CCC3)nn2-c2cccnc2)cnn1C

>  <enamine_id>  (27) 
PV-007164547699

$$$$

     RDKit          3D

 26 29  0  0  0  0  0  0  0  0999 V2000
    3.4239   -4.5859   22.2184 O   0  0  0  0  0  0  0  0  0  0  0  0
    4.7344   -5.0868   22.5867 S   0  0  0  0  0  0  0  0  0  0  0  0
    5.4756   -5.9363   21.6791 O   0  0  0  0  0  0  0  0  0  0  0  0
    4.5823   -5.8500   24.1738 C   0  0  0  0  0  0  0  0  0  0  0  0
    3.8641   -4.9124   25.1673 C   0  0  0  0  0  0  0  0  0  0  0  0
    4.2894   -3.4294   24.9728 C   0  0  0  0  0  0  0  0  0  0  0  0
    5.6959   -3.3158   24.3731 C   0  0  0  0  0  0  0  0  0  0  0  0
    5.7411   -3.7959   22.9827 N   0  0  0  0  0  0  0  0  0  0  0  0
    6.0391   -2.8615   21.8763 C   0  0  0  0  0  0  0  0  0  0  0  0
    7.2047   -1.9027   22.0618 C   0  0  0  0  0  0  0  0  0  0  0  0
    8.3024   -2.0824   22.7842 N   0  0  0  0  0  0  0  0  0  0  0  0
    9.1248   -1.0895   22.3690 C   0  0  0  0  0  0  0  0  0  0  0  0
   10.5822   -1.0212   22.7175 C   0  0  2  0  0  0  0  0  0  0  0  0
   11.0105    0.3263   23.3550 C   0  0  0  0  0  0  0  0  0  0  0  0
   12.5177    0.4447   23.4577 C   0  0  0  0  0  0  0  0  0  0  0  0
   13.3696   -0.2924   22.7426 C   0  0  0  0  0  0  0  0  0  0  0  0
   12.9336   -1.3530   21.7563 C   0  0  0  0  0  0  0  0  0  0  0  0
   11.4319   -1.2772   21.4428 C   0  0  0  0  0  0  0  0  0  0  0  0
    8.5999   -0.2920   21.4599 N   0  0  0  0  0  0  0  0  0  0  0  0
    7.3563   -0.7994   21.2695 N   0  0  0  0  0  0  0  0  0  0  0  0
    6.6110   -0.2576   20.1847 C   0  0  0  0  0  0  0  0  0  0  0  0
    5.3416    0.3072   20.3374 C   0  0  0  0  0  0  0  0  0  0  0  0
    4.7842    0.9585   19.2292 C   0  0  0  0  0  0  0  0  0  0  0  0
    5.5036    1.0059   18.0327 C   0  0  0  0  0  0  0  0  0  0  0  0
    6.7054    0.4230   17.8690 N   0  0  0  0  0  0  0  0  0  0  0  0
    7.2437   -0.1799   18.9301 C   0  0  0  0  0  0  0  0  0  0  0  0
  1  2  2  0
  2  3  2  0
  2  4  1  0
  4  5  1  0
  5  6  1  0
  6  7  1  0
  7  8  1  0
  8  9  1  0
  9 10  1  0
 10 11  2  0
 11 12  1  0
 13 12  1  6
 13 14  1  0
 14 15  1  0
 15 16  2  0
 16 17  1  0
 17 18  1  0
 12 19  2  0
 19 20  1  0
 20 21  1  0
 21 22  2  0
 22 23  1  0
 23 24  2  0
 24 25  1  0
 25 26  2  0
  8  2  1  0
 20 10  1  0
 26 21  1  0
 18 13  1  0
M  END
>  <cnnaffinity>  (28) 
-6.66732

>  <filename>  (28) 
O=S1(=O)CCCCN1Cc1nc(C2CC=CCC2)nn1-c1cccnc1

>  <enamine_id>  (28) 
PV-006750928023

$$$$

     RDKit          3D

 24 27  0  0  0  0  0  0  0  0999 V2000
    7.9273    2.7863   21.9488 C   0  0  0  0  0  0  0  0  0  0  0  0
    9.2439    2.4132   22.4617 N   0  0  0  0  0  0  0  0  0  0  0  0
    9.8403    3.0065   23.5341 N   0  0  0  0  0  0  0  0  0  0  0  0
   10.9440    2.3217   23.7174 C   0  0  0  0  0  0  0  0  0  0  0  0
   11.0899    1.2612   22.7461 C   0  0  0  0  0  0  0  0  0  0  0  0
   12.5023   -0.0320   22.6635 Br  0  0  0  0  0  0  0  0  0  0  0  0
    9.9887    1.3492   21.9592 C   0  0  0  0  0  0  0  0  0  0  0  0
    9.6179    0.4005   20.8470 C   0  0  0  0  0  0  0  0  0  0  0  0
    8.6143   -0.5758   21.3568 C   0  0  0  0  0  0  0  0  0  0  0  0
    8.8698   -1.4139   22.3164 N   0  0  0  0  0  0  0  0  0  0  0  0
    7.6470   -2.0308   22.5088 C   0  0  0  0  0  0  0  0  0  0  0  0
    7.4336   -3.0618   23.5846 C   0  0  0  0  0  0  0  0  0  0  0  0
    6.4224   -2.6100   24.6369 C   0  0  0  0  0  0  0  0  0  0  0  0
    5.8098   -3.8825   25.2061 C   0  0  0  0  0  0  0  0  0  0  0  0
    6.1019   -5.0000   24.2068 C   0  0  0  0  0  0  0  0  0  0  0  0
    6.8551   -4.3676   23.0427 C   0  0  0  0  0  0  0  0  0  0  0  0
    6.6934   -1.6360   21.6996 N   0  0  0  0  0  0  0  0  0  0  0  0
    7.2987   -0.7041   20.9339 N   0  0  0  0  0  0  0  0  0  0  0  0
    6.6593    0.0028   19.9118 C   0  0  0  0  0  0  0  0  0  0  0  0
    5.4444    0.6413   20.1614 C   0  0  0  0  0  0  0  0  0  0  0  0
    4.8257    1.3011   19.1008 C   0  0  0  0  0  0  0  0  0  0  0  0
    5.4048    1.2972   17.8260 C   0  0  0  0  0  0  0  0  0  0  0  0
    6.5779    0.6804   17.5832 N   0  0  0  0  0  0  0  0  0  0  0  0
    7.1897    0.0597   18.6088 C   0  0  0  0  0  0  0  0  0  0  0  0
  1  2  1  0
  2  3  1  0
  3  4  2  0
  4  5  1  0
  5  6  1  0
  5  7  2  0
  7  8  1  0
  8  9  1  0
  9 10  2  0
 10 11  1  0
 11 12  1  0
 12 13  1  0
 13 14  1  0
 14 15  1  0
 15 16  1  0
 11 17  2  0
 17 18  1  0
 18 19  1  0
 19 20  2  0
 20 21  1  0
 21 22  2  0
 22 23  1  0
 23 24  2  0
  7  2  1  0
 18  9  1  0
 24 19  1  0
 16 12  1  0
M  END
>  <cnnaffinity>  (29) 
-6.6605

>  <filename>  (29) 
Cn1ncc(Br)c1Cc1nc(C2CCCC2)nn1-c1cccnc1

>  <enamine_id>  (29) 
PV-007035093880

$$$$

     RDKit          3D

 24 27  0  0  0  0  0  0  0  0999 V2000
   12.1963   -1.3572   21.1506 C   0  0  0  0  0  0  0  0  0  0  0  0
   11.8868   -0.0820   21.8949 C   0  0  0  0  0  0  0  0  0  0  0  0
   12.7479    0.4011   22.8923 C   0  0  0  0  0  0  0  0  0  0  0  0
   12.5482    1.5047   23.6200 N   0  0  0  0  0  0  0  0  0  0  0  0
   11.4304    2.1922   23.3708 C   0  0  0  0  0  0  0  0  0  0  0  0
   10.5019    1.8185   22.4006 C   0  0  0  0  0  0  0  0  0  0  0  0
   10.7368    0.6784   21.6302 C   0  0  0  0  0  0  0  0  0  0  0  0
    9.6685    0.2230   20.6675 C   0  0  0  0  0  0  0  0  0  0  0  0
    8.6415   -0.6194   21.3342 C   0  0  0  0  0  0  0  0  0  0  0  0
    8.8597   -1.4671   22.3161 N   0  0  0  0  0  0  0  0  0  0  0  0
    7.6324   -1.9844   22.5626 C   0  0  0  0  0  0  0  0  0  0  0  0
    7.3855   -2.9545   23.6793 C   0  0  0  0  0  0  0  0  0  0  0  0
    8.3110   -4.1921   23.5986 C   0  0  0  0  0  0  0  0  0  0  0  0
    9.5630   -3.8570   24.4388 C   0  0  0  0  0  0  0  0  0  0  0  0
    9.1798   -2.6768   25.3601 C   0  0  0  0  0  0  0  0  0  0  0  0
    7.7004   -2.3453   25.0696 C   0  0  0  0  0  0  0  0  0  0  0  0
    6.6800   -1.5460   21.7622 N   0  0  0  0  0  0  0  0  0  0  0  0
    7.3360   -0.6844   20.9381 N   0  0  0  0  0  0  0  0  0  0  0  0
    6.6506    0.0031   19.9015 C   0  0  0  0  0  0  0  0  0  0  0  0
    5.4362    0.6461   20.1643 C   0  0  0  0  0  0  0  0  0  0  0  0
    4.8109    1.3120   19.1088 C   0  0  0  0  0  0  0  0  0  0  0  0
    5.4000    1.2957   17.8375 C   0  0  0  0  0  0  0  0  0  0  0  0
    6.5597    0.6733   17.5782 N   0  0  0  0  0  0  0  0  0  0  0  0
    7.1668    0.0511   18.5936 C   0  0  0  0  0  0  0  0  0  0  0  0
  1  2  1  0
  2  3  2  0
  3  4  1  0
  4  5  2  0
  5  6  1  0
  6  7  2  0
  7  8  1  0
  8  9  1  0
  9 10  2  0
 10 11  1  0
 11 12  1  0
 12 13  1  0
 13 14  1  0
 14 15  1  0
 15 16  1  0
 11 17  2  0
 17 18  1  0
 18 19  1  0
 19 20  2  0
 20 21  1  0
 21 22  2  0
 22 23  1  0
 23 24  2  0
  7  2  1  0
 18  9  1  0
 24 19  1  0
 16 12  1  0
M  END
>  <cnnaffinity>  (30) 
-6.65864

>  <filename>  (30) 
Cc1cnccc1Cc1nc(C2CCCC2)nn1-c1cccnc1

>  <enamine_id>  (30) 
PV-007005368643

$$$$

     RDKit          3D

 24 27  0  0  0  0  0  0  0  0999 V2000
   11.6159    2.8798   23.7504 C   0  0  0  0  0  0  0  0  0  0  0  0
   10.2702    2.3147   24.0862 C   0  0  0  0  0  0  0  0  0  0  0  0
    9.3182    2.1461   23.2204 N   0  0  0  0  0  0  0  0  0  0  0  0
    8.1841    1.6266   23.8057 C   0  0  0  0  0  0  0  0  0  0  0  0
    7.0569    1.2778   22.8735 C   0  0  0  0  0  0  0  0  0  0  0  0
    7.2934   -0.0804   22.2907 C   0  0  0  0  0  0  0  0  0  0  0  0
    7.7911   -1.0852   22.9845 N   0  0  0  0  0  0  0  0  0  0  0  0
    8.0516   -2.0229   22.0457 C   0  0  0  0  0  0  0  0  0  0  0  0
    8.8178   -3.2824   22.3212 C   0  0  1  0  0  0  0  0  0  0  0  0
   10.0259   -3.0000   23.2708 C   0  0  0  0  0  0  0  0  0  0  0  0
    9.7329   -3.3190   24.7189 C   0  0  0  0  0  0  0  0  0  0  0  0
    8.5324   -3.6759   25.1774 C   0  0  0  0  0  0  0  0  0  0  0  0
    7.4009   -4.0993   24.2709 C   0  0  0  0  0  0  0  0  0  0  0  0
    7.9338   -4.4323   22.8688 C   0  0  0  0  0  0  0  0  0  0  0  0
    7.6849   -1.6977   20.8229 N   0  0  0  0  0  0  0  0  0  0  0  0
    7.1401   -0.4626   20.9837 N   0  0  0  0  0  0  0  0  0  0  0  0
    6.5179    0.1709   19.8824 C   0  0  0  0  0  0  0  0  0  0  0  0
    5.3139    0.8627   20.0366 C   0  0  0  0  0  0  0  0  0  0  0  0
    4.7431    1.4537   18.9059 C   0  0  0  0  0  0  0  0  0  0  0  0
    5.4039    1.3427   17.6783 C   0  0  0  0  0  0  0  0  0  0  0  0
    6.5480    0.6515   17.5209 N   0  0  0  0  0  0  0  0  0  0  0  0
    7.0782    0.0606   18.5961 C   0  0  0  0  0  0  0  0  0  0  0  0
    8.2747    1.3890   25.1381 C   0  0  0  0  0  0  0  0  0  0  0  0
    9.8488    1.8185   25.7029 S   0  0  0  0  0  0  0  0  0  0  0  0
  1  2  1  0
  2  3  2  0
  3  4  1  0
  4  5  1  0
  5  6  1  0
  6  7  2  0
  7  8  1  0
  9  8  1  1
  9 10  1  0
 10 11  1  0
 11 12  2  0
 12 13  1  0
 13 14  1  0
  8 15  2  0
 15 16  1  0
 16 17  1  0
 17 18  2  0
 18 19  1  0
 19 20  2  0
 20 21  1  0
 21 22  2  0
  4 23  2  0
 23 24  1  0
 24  2  1  0
 16  6  1  0
 22 17  1  0
 14  9  1  0
M  END
>  <cnnaffinity>  (31) 
-6.65584

>  <filename>  (31) 
Cc1nc(Cc2nc(C3CC=CCC3)nn2-c2cccnc2)cs1

>  <enamine_id>  (31) 
PV-006797295496

$$$$

     RDKit          3D

 24 27  0  0  0  0  0  0  0  0999 V2000
   12.1836   -0.3681   21.8269 F   0  0  0  0  0  0  0  0  0  0  0  0
   11.5657    0.6987   22.3572 C   0  0  0  0  0  0  0  0  0  0  0  0
   12.1595    1.3734   23.4245 C   0  0  0  0  0  0  0  0  0  0  0  0
   11.5896    2.4294   24.0160 N   0  0  0  0  0  0  0  0  0  0  0  0
   10.3976    2.8287   23.5572 C   0  0  0  0  0  0  0  0  0  0  0  0
    9.7449    2.1962   22.4933 C   0  0  0  0  0  0  0  0  0  0  0  0
    8.1813    2.7609   22.0075 Cl  0  0  0  0  0  0  0  0  0  0  0  0
   10.3362    1.1047   21.8443 C   0  0  0  0  0  0  0  0  0  0  0  0
    9.6210    0.3227   20.7746 C   0  0  0  0  0  0  0  0  0  0  0  0
    8.6016   -0.5916   21.3483 C   0  0  0  0  0  0  0  0  0  0  0  0
    8.8359   -1.4486   22.3166 N   0  0  0  0  0  0  0  0  0  0  0  0
    7.6233   -2.0277   22.5159 C   0  0  0  0  0  0  0  0  0  0  0  0
    7.4099   -3.0293   23.5921 C   0  0  0  0  0  0  0  0  0  0  0  0
    8.4548   -4.1845   23.6677 C   0  0  0  0  0  0  0  0  0  0  0  0
    8.8780   -3.7090   25.0763 C   0  0  0  0  0  0  0  0  0  0  0  0
    7.8278   -2.5758   25.0278 C   0  0  0  0  0  0  0  0  0  0  0  0
    6.6706   -1.6042   21.7106 N   0  0  0  0  0  0  0  0  0  0  0  0
    7.3131   -0.6976   20.9267 N   0  0  0  0  0  0  0  0  0  0  0  0
    6.6427    0.0022   19.8948 C   0  0  0  0  0  0  0  0  0  0  0  0
    5.4329    0.6477   20.1627 C   0  0  0  0  0  0  0  0  0  0  0  0
    4.8102    1.3152   19.1077 C   0  0  0  0  0  0  0  0  0  0  0  0
    5.3989    1.2964   17.8367 C   0  0  0  0  0  0  0  0  0  0  0  0
    6.5564    0.6710   17.5744 N   0  0  0  0  0  0  0  0  0  0  0  0
    7.1637    0.0494   18.5885 C   0  0  0  0  0  0  0  0  0  0  0  0
  1  2  1  0
  2  3  2  0
  3  4  1  0
  4  5  2  0
  5  6  1  0
  6  7  1  0
  6  8  2  0
  8  9  1  0
  9 10  1  0
 10 11  2  0
 11 12  1  0
 12 13  1  0
 13 14  1  0
 14 15  1  0
 15 16  1  0
 12 17  2  0
 17 18  1  0
 18 19  1  0
 19 20  2  0
 20 21  1  0
 21 22  2  0
 22 23  1  0
 23 24  2  0
  8  2  1  0
 18 10  1  0
 24 19  1  0
 16 13  1  0
M  END
>  <cnnaffinity>  (32) 
-6.6555

>  <filename>  (32) 
Fc1cncc(Cl)c1Cc1nc(C2CCC2)nn1-c1cccnc1

>  <enamine_id>  (32) 
PV-006923546255

$$$$

     RDKit          3D

 25 28  0  0  0  0  0  0  0  0999 V2000
   11.0725    3.1777   24.1731 C   0  0  0  0  0  0  0  0  0  0  0  0
   11.4511    2.0134   23.3045 C   0  0  0  0  0  0  0  0  0  0  0  0
   12.5809    1.2486   23.4254 C   0  0  0  0  0  0  0  0  0  0  0  0
   12.8023    0.1254   22.5670 C   0  0  0  0  0  0  0  0  0  0  0  0
   11.8664   -0.2035   21.6367 C   0  0  0  0  0  0  0  0  0  0  0  0
   10.7165    0.5295   21.4843 N   0  0  0  0  0  0  0  0  0  0  0  0
    9.6205    0.0453   20.6272 C   0  0  0  0  0  0  0  0  0  0  0  0
    8.5507   -0.7365   21.3581 C   0  0  0  0  0  0  0  0  0  0  0  0
    8.7335   -1.4791   22.4271 N   0  0  0  0  0  0  0  0  0  0  0  0
    7.5097   -2.0332   22.6569 C   0  0  0  0  0  0  0  0  0  0  0  0
    7.2395   -2.9560   23.8206 C   0  0  0  0  0  0  0  0  0  0  0  0
    8.3089   -4.0698   23.9705 C   0  0  0  0  0  0  0  0  0  0  0  0
    9.4592   -3.4412   24.7934 C   0  0  0  0  0  0  0  0  0  0  0  0
    8.8604   -2.1965   25.4897 C   0  0  0  0  0  0  0  0  0  0  0  0
    7.3501   -2.2215   25.1824 C   0  0  0  0  0  0  0  0  0  0  0  0
    6.5868   -1.6733   21.7850 N   0  0  0  0  0  0  0  0  0  0  0  0
    7.2575   -0.8528   20.9250 N   0  0  0  0  0  0  0  0  0  0  0  0
    6.5789   -0.1584   19.8772 C   0  0  0  0  0  0  0  0  0  0  0  0
    5.4023    0.5546   20.1358 C   0  0  0  0  0  0  0  0  0  0  0  0
    4.8336    1.2940   19.0936 C   0  0  0  0  0  0  0  0  0  0  0  0
    5.4522    1.2960   17.8371 C   0  0  0  0  0  0  0  0  0  0  0  0
    6.5583    0.5886   17.5683 N   0  0  0  0  0  0  0  0  0  0  0  0
    7.0970   -0.1229   18.5670 C   0  0  0  0  0  0  0  0  0  0  0  0
   10.4475    1.6730   22.2827 C   0  0  0  0  0  0  0  0  0  0  0  0
    9.4079    2.3006   22.1051 O   0  0  0  0  0  0  0  0  0  0  0  0
  1  2  1  0
  2  3  2  0
  3  4  1  0
  4  5  2  0
  5  6  1  0
  6  7  1  0
  7  8  1  0
  8  9  2  0
  9 10  1  0
 10 11  1  0
 11 12  1  0
 12 13  1  0
 13 14  1  0
 14 15  1  0
 10 16  2  0
 16 17  1  0
 17 18  1  0
 18 19  2  0
 19 20  1  0
 20 21  2  0
 21 22  1  0
 22 23  2  0
  6 24  1  0
 24 25  2  0
 24  2  1  0
 17  8  1  0
 23 18  1  0
 15 11  1  0
M  END
>  <cnnaffinity>  (33) 
-6.65256

>  <filename>  (33) 
Cc1cccn(Cc2nc(C3CCCC3)nn2-c2cccnc2)c1=O

>  <enamine_id>  (33) 
PV-007118318646

$$$$

     RDKit          3D

 26 29  0  0  0  0  0  0  0  0999 V2000
    7.1085   -5.0827   22.5919 C   0  0  0  0  0  0  0  0  0  0  0  0
    6.4966   -4.0545   23.3452 O   0  0  0  0  0  0  0  0  0  0  0  0
    7.3621   -2.9804   23.6606 C   0  0  1  0  0  0  0  0  0  0  0  0
    7.5736   -2.0164   22.5159 C   0  0  0  0  0  0  0  0  0  0  0  0
    6.6406   -1.6031   21.6801 N   0  0  0  0  0  0  0  0  0  0  0  0
    7.3022   -0.6906   20.9206 N   0  0  0  0  0  0  0  0  0  0  0  0
    6.6385   -0.0036   19.8734 C   0  0  0  0  0  0  0  0  0  0  0  0
    5.4271    0.6392   20.1386 C   0  0  0  0  0  0  0  0  0  0  0  0
    4.7964    1.3194   19.0943 C   0  0  0  0  0  0  0  0  0  0  0  0
    5.3890    1.3030   17.8231 C   0  0  0  0  0  0  0  0  0  0  0  0
    6.5366    0.6625   17.5550 N   0  0  0  0  0  0  0  0  0  0  0  0
    7.1486    0.0354   18.5624 C   0  0  0  0  0  0  0  0  0  0  0  0
    8.5864   -0.5808   21.3689 C   0  0  0  0  0  0  0  0  0  0  0  0
    9.6459    0.3093   20.8126 C   0  0  0  0  0  0  0  0  0  0  0  0
   10.3136    1.1533   21.8777 C   0  0  0  0  0  0  0  0  0  0  0  0
    9.6794    2.2569   22.4792 C   0  0  0  0  0  0  0  0  0  0  0  0
    8.1084    2.7680   21.9375 Cl  0  0  0  0  0  0  0  0  0  0  0  0
   10.2784    2.9230   23.5602 C   0  0  0  0  0  0  0  0  0  0  0  0
   11.4605    2.5403   24.0683 N   0  0  0  0  0  0  0  0  0  0  0  0
   12.0915    1.4973   23.5077 C   0  0  0  0  0  0  0  0  0  0  0  0
   11.5507    0.7992   22.4259 C   0  0  0  0  0  0  0  0  0  0  0  0
   12.2321   -0.2451   21.9214 F   0  0  0  0  0  0  0  0  0  0  0  0
    8.7836   -1.4242   22.3608 N   0  0  0  0  0  0  0  0  0  0  0  0
    6.8146   -2.2473   24.8781 C   0  0  0  0  0  0  0  0  0  0  0  0
    7.0716   -2.8119   26.2447 C   0  0  0  0  0  0  0  0  0  0  0  0
    7.7915   -1.5691   25.8002 C   0  0  0  0  0  0  0  0  0  0  0  0
  1  2  1  0
  3  2  1  6
  3  4  1  0
  4  5  2  0
  5  6  1  0
  6  7  1  0
  7  8  2  0
  8  9  1  0
  9 10  2  0
 10 11  1  0
 11 12  2  0
  6 13  1  0
 13 14  1  0
 14 15  1  0
 15 16  2  0
 16 17  1  0
 16 18  1  0
 18 19  2  0
 19 20  1  0
 20 21  2  0
 21 22  1  0
 13 23  2  0
  3 24  1  0
 24 25  1  0
 25 26  1  0
 23  4  1  0
 26 24  1  0
 12  7  1  0
 21 15  1  0
M  END
>  <cnnaffinity>  (34) 
-6.65225

>  <filename>  (34) 
COC(c1nc(Cc2c(F)cncc2Cl)n(-c2cccnc2)n1)C1CC1

>  <enamine_id>  (34) 
PV-006944333173

$$$$

     RDKit          3D

 24 27  0  0  0  0  0  0  0  0999 V2000
    8.9240    2.7436   22.3559 C   0  0  0  0  0  0  0  0  0  0  0  0
   10.2154    2.0080   22.5618 C   0  0  0  0  0  0  0  0  0  0  0  0
   11.2618    2.2555   23.4173 C   0  0  0  0  0  0  0  0  0  0  0  0
   12.1958    1.1853   23.2779 C   0  0  0  0  0  0  0  0  0  0  0  0
   11.6955    0.3120   22.3450 C   0  0  0  0  0  0  0  0  0  0  0  0
   12.1463   -1.0639   21.9635 C   0  0  0  0  0  0  0  0  0  0  0  0
   10.5167    0.8555   21.8613 N   0  0  0  0  0  0  0  0  0  0  0  0
    9.6639    0.2604   20.8595 C   0  0  0  0  0  0  0  0  0  0  0  0
    8.6075   -0.6059   21.4364 C   0  0  0  0  0  0  0  0  0  0  0  0
    8.8054   -1.4565   22.4206 N   0  0  0  0  0  0  0  0  0  0  0  0
    7.5994   -2.0421   22.5662 C   0  0  0  0  0  0  0  0  0  0  0  0
    7.3497   -3.0237   23.6611 C   0  0  0  0  0  0  0  0  0  0  0  0
    6.7001   -4.3306   23.1775 C   0  0  0  0  0  0  0  0  0  0  0  0
    6.0390   -4.9329   24.4274 C   0  0  0  0  0  0  0  0  0  0  0  0
    5.8007   -3.7600   25.4144 C   0  0  0  0  0  0  0  0  0  0  0  0
    6.3932   -2.5001   24.7558 C   0  0  0  0  0  0  0  0  0  0  0  0
    6.6763   -1.6418   21.7058 N   0  0  0  0  0  0  0  0  0  0  0  0
    7.3409   -0.7299   20.9489 N   0  0  0  0  0  0  0  0  0  0  0  0
    6.6671   -0.0432   19.8977 C   0  0  0  0  0  0  0  0  0  0  0  0
    5.4561    0.6092   20.1551 C   0  0  0  0  0  0  0  0  0  0  0  0
    4.8394    1.2931   19.1033 C   0  0  0  0  0  0  0  0  0  0  0  0
    5.4346    1.2798   17.8358 C   0  0  0  0  0  0  0  0  0  0  0  0
    6.5775    0.6271   17.5732 N   0  0  0  0  0  0  0  0  0  0  0  0
    7.1744   -0.0122   18.5863 C   0  0  0  0  0  0  0  0  0  0  0  0
  1  2  1  0
  2  3  2  0
  3  4  1  0
  4  5  2  0
  5  6  1  0
  5  7  1  0
  7  8  1  0
  8  9  1  0
  9 10  2  0
 10 11  1  0
 11 12  1  0
 12 13  1  0
 13 14  1  0
 14 15  1  0
 15 16  1  0
 11 17  2  0
 17 18  1  0
 18 19  1  0
 19 20  2  0
 20 21  1  0
 21 22  2  0
 22 23  1  0
 23 24  2  0
  7  2  1  0
 18  9  1  0
 24 19  1  0
 16 12  1  0
M  END
>  <cnnaffinity>  (35) 
-6.65179

>  <filename>  (35) 
Cc1ccc(C)n1Cc1nc(C2CCCC2)nn1-c1cccnc1

>  <enamine_id>  (35) 
PV-006876815507

$$$$

     RDKit          3D

 24 27  0  0  0  0  0  0  0  0999 V2000
    7.9776    1.1733   25.7310 F   0  0  0  0  0  0  0  0  0  0  0  0
    8.8991    1.6408   24.8727 C   0  0  0  0  0  0  0  0  0  0  0  0
   10.1506    2.0079   25.3731 C   0  0  0  0  0  0  0  0  0  0  0  0
   11.1269    2.5172   24.6120 N   0  0  0  0  0  0  0  0  0  0  0  0
   10.8786    2.6584   23.3071 C   0  0  0  0  0  0  0  0  0  0  0  0
    9.6601    2.2746   22.7343 C   0  0  0  0  0  0  0  0  0  0  0  0
    9.4737    2.3925   21.0300 Cl  0  0  0  0  0  0  0  0  0  0  0  0
    8.6189    1.7377   23.5078 C   0  0  0  0  0  0  0  0  0  0  0  0
    7.3666    1.1726   22.8610 C   0  0  0  0  0  0  0  0  0  0  0  0
    7.6097   -0.1710   22.2353 C   0  0  0  0  0  0  0  0  0  0  0  0
    8.1522   -1.1853   22.8884 N   0  0  0  0  0  0  0  0  0  0  0  0
    8.1713   -2.1803   21.9701 C   0  0  0  0  0  0  0  0  0  0  0  0
    8.7179   -3.5370   22.2139 C   0  0  0  0  0  0  0  0  0  0  0  0
    7.7452   -4.5238   22.8352 C   0  0  0  0  0  0  0  0  0  0  0  0
    8.0025   -5.9872   22.6559 C   0  0  0  0  0  0  0  0  0  0  0  0
    6.9020   -5.3140   21.8799 C   0  0  0  0  0  0  0  0  0  0  0  0
    7.7032   -1.8495   20.7888 N   0  0  0  0  0  0  0  0  0  0  0  0
    7.3118   -0.5659   20.9586 N   0  0  0  0  0  0  0  0  0  0  0  0
    6.6267    0.0795   19.9002 C   0  0  0  0  0  0  0  0  0  0  0  0
    5.3972    0.7039   20.1212 C   0  0  0  0  0  0  0  0  0  0  0  0
    4.7808    1.3281   19.0354 C   0  0  0  0  0  0  0  0  0  0  0  0
    5.4110    1.2952   17.7877 C   0  0  0  0  0  0  0  0  0  0  0  0
    6.5614    0.6325   17.5583 N   0  0  0  0  0  0  0  0  0  0  0  0
    7.1463    0.0245   18.5944 C   0  0  0  0  0  0  0  0  0  0  0  0
  1  2  1  0
  2  3  2  0
  3  4  1  0
  4  5  2  0
  5  6  1  0
  6  7  1  0
  6  8  2  0
  8  9  1  0
  9 10  1  0
 10 11  2  0
 11 12  1  0
 12 13  1  0
 13 14  1  0
 14 15  1  0
 15 16  1  0
 12 17  2  0
 17 18  1  0
 18 19  1  0
 19 20  2  0
 20 21  1  0
 21 22  2  0
 22 23  1  0
 23 24  2  0
  8  2  1  0
 18 10  1  0
 24 19  1  0
 16 14  1  0
M  END
>  <cnnaffinity>  (36) 
-6.64309

>  <filename>  (36) 
Fc1cncc(Cl)c1Cc1nc(CC2CC2)nn1-c1cccnc1

>  <enamine_id>  (36) 
PV-006767781705

$$$$

     RDKit          3D

 25 28  0  0  0  0  0  0  0  0999 V2000
    9.3421    2.5965   22.1613 F   0  0  0  0  0  0  0  0  0  0  0  0
   10.4716    1.8991   22.3941 C   0  0  0  0  0  0  0  0  0  0  0  0
   11.3346    2.3641   23.3802 C   0  0  0  0  0  0  0  0  0  0  0  0
   12.4888    1.6242   23.6464 C   0  0  0  0  0  0  0  0  0  0  0  0
   12.7566    0.4447   22.9549 C   0  0  0  0  0  0  0  0  0  0  0  0
   11.8600    0.0166   21.9721 C   0  0  0  0  0  0  0  0  0  0  0  0
   12.1902   -1.4962   21.1842 Cl  0  0  0  0  0  0  0  0  0  0  0  0
   10.7013    0.7371   21.6435 C   0  0  0  0  0  0  0  0  0  0  0  0
    9.6498    0.2336   20.6742 C   0  0  0  0  0  0  0  0  0  0  0  0
    8.6262   -0.6230   21.3329 C   0  0  0  0  0  0  0  0  0  0  0  0
    8.8411   -1.4525   22.3308 N   0  0  0  0  0  0  0  0  0  0  0  0
    7.6158   -1.9682   22.5696 C   0  0  0  0  0  0  0  0  0  0  0  0
    7.3798   -2.9187   23.6957 C   0  0  2  0  0  0  0  0  0  0  0  0
    8.5817   -3.8136   24.0755 C   0  0  0  0  0  0  0  0  0  0  0  0
    7.9076   -5.0587   24.6652 C   0  0  0  0  0  0  0  0  0  0  0  0
    6.5690   -5.0702   24.1888 O   0  0  0  0  0  0  0  0  0  0  0  0
    6.2820   -3.9434   23.3857 C   0  0  0  0  0  0  0  0  0  0  0  0
    6.6620   -1.5433   21.7586 N   0  0  0  0  0  0  0  0  0  0  0  0
    7.3259   -0.6994   20.9272 N   0  0  0  0  0  0  0  0  0  0  0  0
    6.6452   -0.0026   19.8981 C   0  0  0  0  0  0  0  0  0  0  0  0
    5.4350    0.6438   20.1651 C   0  0  0  0  0  0  0  0  0  0  0  0
    4.8115    1.3117   19.1099 C   0  0  0  0  0  0  0  0  0  0  0  0
    5.3990    1.2956   17.8382 C   0  0  0  0  0  0  0  0  0  0  0  0
    6.5576    0.6719   17.5772 N   0  0  0  0  0  0  0  0  0  0  0  0
    7.1641    0.0483   18.5917 C   0  0  0  0  0  0  0  0  0  0  0  0
  1  2  1  0
  2  3  2  0
  3  4  1  0
  4  5  2  0
  5  6  1  0
  6  7  1  0
  6  8  2  0
  8  9  1  0
  9 10  1  0
 10 11  2  0
 11 12  1  0
 13 12  1  6
 13 14  1  0
 14 15  1  0
 15 16  1  0
 16 17  1  0
 12 18  2  0
 18 19  1  0
 19 20  1  0
 20 21  2  0
 21 22  1  0
 22 23  2  0
 23 24  1  0
 24 25  2  0
  8  2  1  0
 19 10  1  0
 25 20  1  0
 17 13  1  0
M  END
>  <cnnaffinity>  (37) 
-6.64077

>  <filename>  (37) 
Fc1cccc(Cl)c1Cc1nc(C2CCOC2)nn1-c1cccnc1

>  <enamine_id>  (37) 
PV-007153512532

$$$$

     RDKit          3D

 24 27  0  0  0  0  0  0  0  0999 V2000
    7.7449   -4.4367   26.1382 C   0  0  0  0  0  0  0  0  0  0  0  0
    7.4845   -3.1352   26.2563 C   0  0  0  0  0  0  0  0  0  0  0  0
    7.4580   -2.1828   25.0898 C   0  0  0  0  0  0  0  0  0  0  0  0
    7.3673   -2.9201   23.7276 C   0  0  1  0  0  0  0  0  0  0  0  0
    7.5656   -1.9563   22.6011 C   0  0  0  0  0  0  0  0  0  0  0  0
    6.6330   -1.5896   21.7484 N   0  0  0  0  0  0  0  0  0  0  0  0
    7.2875   -0.7160   20.9359 N   0  0  0  0  0  0  0  0  0  0  0  0
    6.6111   -0.0370   19.8840 C   0  0  0  0  0  0  0  0  0  0  0  0
    5.4049    0.6223   20.1401 C   0  0  0  0  0  0  0  0  0  0  0  0
    4.7960    1.3119   19.0901 C   0  0  0  0  0  0  0  0  0  0  0  0
    5.4028    1.3055   17.8272 C   0  0  0  0  0  0  0  0  0  0  0  0
    6.5493    0.6585   17.5677 N   0  0  0  0  0  0  0  0  0  0  0  0
    7.1363    0.0079   18.5784 C   0  0  0  0  0  0  0  0  0  0  0  0
    8.5692   -0.5816   21.3752 C   0  0  0  0  0  0  0  0  0  0  0  0
    9.5837    0.2873   20.7165 C   0  0  0  0  0  0  0  0  0  0  0  0
   10.7704    0.5900   21.6368 C   0  0  1  0  0  0  0  0  0  0  0  0
   11.6873   -0.6208   21.8521 C   0  0  0  0  0  0  0  0  0  0  0  0
   12.8232   -0.3448   23.2256 S   0  0  0  0  0  0  0  0  0  0  0  0
   13.7080    1.1096   22.6719 C   0  0  0  0  0  0  0  0  0  0  0  0
   12.7864    2.3013   22.4125 C   0  0  0  0  0  0  0  0  0  0  0  0
   11.6715    2.0349   20.9979 S   0  0  0  0  0  0  0  0  0  0  0  0
    8.7680   -1.3551   22.4192 N   0  0  0  0  0  0  0  0  0  0  0  0
    8.3718   -4.1013   23.7031 C   0  0  0  0  0  0  0  0  0  0  0  0
    8.0475   -5.1091   24.8196 C   0  0  0  0  0  0  0  0  0  0  0  0
  1  2  2  0
  2  3  1  0
  3  4  1  0
  4  5  1  6
  5  6  2  0
  6  7  1  0
  7  8  1  0
  8  9  2  0
  9 10  1  0
 10 11  2  0
 11 12  1  0
 12 13  2  0
  7 14  1  0
 14 15  1  0
 16 15  1  6
 16 17  1  0
 17 18  1  0
 18 19  1  0
 19 20  1  0
 20 21  1  0
 14 22  2  0
  4 23  1  0
 23 24  1  0
 24  1  1  0
 22  5  1  0
 13  8  1  0
 21 16  1  0
M  END
>  <cnnaffinity>  (38) 
-6.63897

>  <filename>  (38) 
C1=CCC(c2nc(CC3CSCCS3)n(-c3cccnc3)n2)CC1

>  <enamine_id>  (38) 
PV-006836100326

$$$$

     RDKit          3D

 24 27  0  0  0  0  0  0  0  0999 V2000
   12.4167   -1.2336   21.5050 C   0  0  0  0  0  0  0  0  0  0  0  0
   11.8529    0.0700   21.9570 C   0  0  0  0  0  0  0  0  0  0  0  0
   10.7137    0.7170   21.5920 C   0  0  0  0  0  0  0  0  0  0  0  0
    9.6423    0.1986   20.6658 C   0  0  0  0  0  0  0  0  0  0  0  0
    8.6045   -0.6386   21.3437 C   0  0  0  0  0  0  0  0  0  0  0  0
    8.8284   -1.4982   22.3141 N   0  0  0  0  0  0  0  0  0  0  0  0
    7.5981   -2.0226   22.5514 C   0  0  0  0  0  0  0  0  0  0  0  0
    7.3735   -2.9839   23.6723 C   0  0  2  0  0  0  0  0  0  0  0  0
    7.5299   -2.2748   25.0530 C   0  0  0  0  0  0  0  0  0  0  0  0
    7.5389   -3.2629   26.1954 C   0  0  0  0  0  0  0  0  0  0  0  0
    7.7706   -4.5704   26.0360 C   0  0  0  0  0  0  0  0  0  0  0  0
    8.0045   -5.2208   24.6896 C   0  0  0  0  0  0  0  0  0  0  0  0
    8.3406   -4.1935   23.5944 C   0  0  0  0  0  0  0  0  0  0  0  0
    6.6445   -1.5761   21.7611 N   0  0  0  0  0  0  0  0  0  0  0  0
    7.3012   -0.7017   20.9550 N   0  0  0  0  0  0  0  0  0  0  0  0
    6.6330   -0.0204   19.8970 C   0  0  0  0  0  0  0  0  0  0  0  0
    5.4253    0.6368   20.1514 C   0  0  0  0  0  0  0  0  0  0  0  0
    4.8005    1.3141   19.1002 C   0  0  0  0  0  0  0  0  0  0  0  0
    5.3961    1.2970   17.8336 C   0  0  0  0  0  0  0  0  0  0  0  0
    6.5469    0.6575   17.5768 N   0  0  0  0  0  0  0  0  0  0  0  0
    7.1494    0.0258   18.5890 C   0  0  0  0  0  0  0  0  0  0  0  0
   10.6092    1.8657   22.4504 C   0  0  0  0  0  0  0  0  0  0  0  0
   11.6947    1.8259   23.2623 C   0  0  0  0  0  0  0  0  0  0  0  0
   12.4604    0.7389   22.9710 O   0  0  0  0  0  0  0  0  0  0  0  0
  1  2  1  0
  2  3  2  0
  3  4  1  0
  4  5  1  0
  5  6  2  0
  6  7  1  0
  8  7  1  6
  8  9  1  0
  9 10  1  0
 10 11  2  0
 11 12  1  0
 12 13  1  0
  7 14  2  0
 14 15  1  0
 15 16  1  0
 16 17  2  0
 17 18  1  0
 18 19  2  0
 19 20  1  0
 20 21  2  0
  3 22  1  0
 22 23  2  0
 23 24  1  0
 24  2  1  0
 15  5  1  0
 21 16  1  0
 13  8  1  0
M  END
>  <cnnaffinity>  (39) 
-6.63892

>  <filename>  (39) 
Cc1occc1Cc1nc(C2CC=CCC2)nn1-c1cccnc1

>  <enamine_id>  (39) 
PV-006989359651

$$$$

     RDKit          3D

 25 28  0  0  0  0  0  0  0  0999 V2000
   13.6319    0.7953   23.5343 C   0  0  0  0  0  0  0  0  0  0  0  0
   12.2655    1.0226   22.9696 C   0  0  0  0  0  0  0  0  0  0  0  0
   11.7905    0.3477   21.9308 N   0  0  0  0  0  0  0  0  0  0  0  0
   10.5498    0.8349   21.7251 N   0  0  0  0  0  0  0  0  0  0  0  0
    9.6700    0.2380   20.7450 C   0  0  0  0  0  0  0  0  0  0  0  0
    8.6295   -0.6112   21.3694 C   0  0  0  0  0  0  0  0  0  0  0  0
    8.8490   -1.4648   22.3388 N   0  0  0  0  0  0  0  0  0  0  0  0
    7.6185   -1.9973   22.5630 C   0  0  0  0  0  0  0  0  0  0  0  0
    7.3906   -2.9698   23.6715 C   0  0  1  0  0  0  0  0  0  0  0  0
    8.1826   -4.2865   23.4296 C   0  0  0  0  0  0  0  0  0  0  0  0
    8.1527   -5.1953   24.6360 C   0  0  0  0  0  0  0  0  0  0  0  0
    7.8504   -4.7744   25.8674 C   0  0  0  0  0  0  0  0  0  0  0  0
    7.4310   -3.3543   26.1825 C   0  0  0  0  0  0  0  0  0  0  0  0
    7.7821   -2.3703   25.0510 C   0  0  0  0  0  0  0  0  0  0  0  0
    6.6735   -1.5582   21.7580 N   0  0  0  0  0  0  0  0  0  0  0  0
    7.3314   -0.6823   20.9520 N   0  0  0  0  0  0  0  0  0  0  0  0
    6.6546    0.0009   19.9041 C   0  0  0  0  0  0  0  0  0  0  0  0
    5.4383    0.6429   20.1576 C   0  0  0  0  0  0  0  0  0  0  0  0
    4.8096    1.3119   19.1063 C   0  0  0  0  0  0  0  0  0  0  0  0
    5.3973    1.2952   17.8349 C   0  0  0  0  0  0  0  0  0  0  0  0
    6.5519    0.6656   17.5767 N   0  0  0  0  0  0  0  0  0  0  0  0
    7.1650    0.0422   18.5898 C   0  0  0  0  0  0  0  0  0  0  0  0
   10.2279    1.8198   22.6093 C   0  0  0  0  0  0  0  0  0  0  0  0
    8.9137    2.5398   22.6345 C   0  0  0  0  0  0  0  0  0  0  0  0
   11.3188    1.9621   23.4313 C   0  0  0  0  0  0  0  0  0  0  0  0
  1  2  1  0
  2  3  2  0
  3  4  1  0
  4  5  1  0
  5  6  1  0
  6  7  2  0
  7  8  1  0
  9  8  1  6
  9 10  1  0
 10 11  1  0
 11 12  2  0
 12 13  1  0
 13 14  1  0
  8 15  2  0
 15 16  1  0
 16 17  1  0
 17 18  2  0
 18 19  1  0
 19 20  2  0
 20 21  1  0
 21 22  2  0
  4 23  1  0
 23 24  1  0
 23 25  2  0
 25  2  1  0
 16  6  1  0
 22 17  1  0
 14  9  1  0
M  END
>  <cnnaffinity>  (40) 
-6.63878

>  <filename>  (40) 
Cc1cc(C)n(Cc2nc(C3CC=CCC3)nn2-c2cccnc2)n1

>  <enamine_id>  (40) 
PV-006849641773

$$$$

     RDKit          3D

 25 28  0  0  0  0  0  0  0  0999 V2000
   12.2485   -1.2739   21.1775 C   0  0  0  0  0  0  0  0  0  0  0  0
   11.9271    0.0064   21.9014 C   0  0  0  0  0  0  0  0  0  0  0  0
   12.8054    0.4081   22.8317 N   0  0  0  0  0  0  0  0  0  0  0  0
   12.5311    1.5031   23.5517 C   0  0  0  0  0  0  0  0  0  0  0  0
   11.3704    2.2600   23.3857 C   0  0  0  0  0  0  0  0  0  0  0  0
   10.4572    1.8522   22.4058 C   0  0  0  0  0  0  0  0  0  0  0  0
   10.7348    0.7242   21.6330 C   0  0  0  0  0  0  0  0  0  0  0  0
    9.6711    0.2158   20.6821 C   0  0  0  0  0  0  0  0  0  0  0  0
    8.6340   -0.6213   21.3484 C   0  0  0  0  0  0  0  0  0  0  0  0
    8.8519   -1.4822   22.3230 N   0  0  0  0  0  0  0  0  0  0  0  0
    7.6232   -2.0025   22.5485 C   0  0  0  0  0  0  0  0  0  0  0  0
    7.3842   -2.9940   23.6367 C   0  0  2  0  0  0  0  0  0  0  0  0
    7.0222   -4.3798   23.0404 C   0  0  0  0  0  0  0  0  0  0  0  0
    6.5104   -5.3379   24.0854 C   0  0  0  0  0  0  0  0  0  0  0  0
    6.0817   -4.9605   25.2917 C   0  0  0  0  0  0  0  0  0  0  0  0
    6.1115   -3.5272   25.7778 C   0  0  0  0  0  0  0  0  0  0  0  0
    6.2873   -2.5250   24.6252 C   0  0  0  0  0  0  0  0  0  0  0  0
    6.6736   -1.5627   21.7391 N   0  0  0  0  0  0  0  0  0  0  0  0
    7.3346   -0.6868   20.9452 N   0  0  0  0  0  0  0  0  0  0  0  0
    6.6511   -0.0075   19.8999 C   0  0  0  0  0  0  0  0  0  0  0  0
    5.4362    0.6342   20.1612 C   0  0  0  0  0  0  0  0  0  0  0  0
    4.8077    1.3075   19.1090 C   0  0  0  0  0  0  0  0  0  0  0  0
    5.3976    1.2942   17.8384 C   0  0  0  0  0  0  0  0  0  0  0  0
    6.5514    0.6633   17.5776 N   0  0  0  0  0  0  0  0  0  0  0  0
    7.1594    0.0367   18.5891 C   0  0  0  0  0  0  0  0  0  0  0  0
  1  2  1  0
  2  3  2  0
  3  4  1  0
  4  5  2  0
  5  6  1  0
  6  7  2  0
  7  8  1  0
  8  9  1  0
  9 10  2  0
 10 11  1  0
 12 11  1  6
 12 13  1  0
 13 14  1  0
 14 15  2  0
 15 16  1  0
 16 17  1  0
 11 18  2  0
 18 19  1  0
 19 20  1  0
 20 21  2  0
 21 22  1  0
 22 23  2  0
 23 24  1  0
 24 25  2  0
  7  2  1  0
 19  9  1  0
 25 20  1  0
 17 12  1  0
M  END
>  <cnnaffinity>  (41) 
-6.63801

>  <filename>  (41) 
Cc1ncccc1Cc1nc(C2CC=CCC2)nn1-c1cccnc1

>  <enamine_id>  (41) 
PV-007156652804

$$$$

     RDKit          3D

 24 26  0  0  0  0  0  0  0  0999 V2000
    5.6335   -5.7958   22.5881 C   0  0  0  0  0  0  0  0  0  0  0  0
    7.0558   -5.1135   21.7046 S   0  0  0  0  0  0  0  0  0  0  0  0
    7.9499   -4.4282   23.1218 C   0  0  0  0  0  0  0  0  0  0  0  0
    7.4259   -3.0577   23.5791 C   0  0  0  0  0  0  0  0  0  0  0  0
    7.6088   -2.0077   22.5486 C   0  0  0  0  0  0  0  0  0  0  0  0
    6.6620   -1.5727   21.7504 N   0  0  0  0  0  0  0  0  0  0  0  0
    7.3144   -0.6828   20.9581 N   0  0  0  0  0  0  0  0  0  0  0  0
    6.6385   -0.0133   19.8991 C   0  0  0  0  0  0  0  0  0  0  0  0
    5.4253    0.6332   20.1577 C   0  0  0  0  0  0  0  0  0  0  0  0
    4.8058    1.3096   19.1027 C   0  0  0  0  0  0  0  0  0  0  0  0
    5.3954    1.2966   17.8327 C   0  0  0  0  0  0  0  0  0  0  0  0
    6.5447    0.6563   17.5715 N   0  0  0  0  0  0  0  0  0  0  0  0
    7.1488    0.0277   18.5865 C   0  0  0  0  0  0  0  0  0  0  0  0
    8.6060   -0.5846   21.3921 C   0  0  0  0  0  0  0  0  0  0  0  0
    9.6341    0.2701   20.7466 C   0  0  0  0  0  0  0  0  0  0  0  0
   10.5726    0.9153   21.7385 C   0  0  0  0  0  0  0  0  0  0  0  0
   11.7904    0.2756   22.0643 C   0  0  0  0  0  0  0  0  0  0  0  0
   12.1835   -1.0588   21.4643 C   0  0  0  0  0  0  0  0  0  0  0  0
   12.6037    0.8491   23.0477 C   0  0  0  0  0  0  0  0  0  0  0  0
   12.1813    1.9792   23.7415 C   0  0  0  0  0  0  0  0  0  0  0  0
   10.9536    2.5772   23.4530 C   0  0  0  0  0  0  0  0  0  0  0  0
   10.1309    2.0547   22.4484 C   0  0  0  0  0  0  0  0  0  0  0  0
    8.7840    2.7018   22.1878 C   0  0  0  0  0  0  0  0  0  0  0  0
    8.8281   -1.4472   22.3610 N   0  0  0  0  0  0  0  0  0  0  0  0
  1  2  1  0
  2  3  1  0
  3  4  1  0
  4  5  1  0
  5  6  2  0
  6  7  1  0
  7  8  1  0
  8  9  2  0
  9 10  1  0
 10 11  2  0
 11 12  1  0
 12 13  2  0
  7 14  1  0
 14 15  1  0
 15 16  1  0
 16 17  2  0
 17 18  1  0
 17 19  1  0
 19 20  2  0
 20 21  1  0
 21 22  2  0
 22 23  1  0
 14 24  2  0
 24  5  1  0
 13  8  1  0
 22 16  1  0
M  END
>  <cnnaffinity>  (42) 
-6.63597

>  <filename>  (42) 
CSCCc1nc(Cc2c(C)cccc2C)n(-c2cccnc2)n1

>  <enamine_id>  (42) 
PV-007097913264

$$$$

     RDKit          3D

 24 27  0  0  0  0  0  0  0  0999 V2000
    5.9092   -5.1044   24.0899 C   0  0  0  0  0  0  0  0  0  0  0  0
    6.8750   -4.4068   23.1620 C   0  0  2  0  0  0  0  0  0  0  0  0
    8.3249   -4.2829   23.5451 C   0  0  0  0  0  0  0  0  0  0  0  0
    7.4295   -3.0621   23.5526 C   0  0  1  0  0  0  0  0  0  0  0  0
    7.6017   -2.0101   22.5287 C   0  0  0  0  0  0  0  0  0  0  0  0
    6.6486   -1.5950   21.7137 N   0  0  0  0  0  0  0  0  0  0  0  0
    7.2970   -0.6855   20.9402 N   0  0  0  0  0  0  0  0  0  0  0  0
    6.6315   -0.0107   19.8876 C   0  0  0  0  0  0  0  0  0  0  0  0
    5.4231    0.6384   20.1502 C   0  0  0  0  0  0  0  0  0  0  0  0
    4.8000    1.3173   19.1006 C   0  0  0  0  0  0  0  0  0  0  0  0
    5.3937    1.2986   17.8311 C   0  0  0  0  0  0  0  0  0  0  0  0
    6.5445    0.6606   17.5683 N   0  0  0  0  0  0  0  0  0  0  0  0
    7.1493    0.0317   18.5797 C   0  0  0  0  0  0  0  0  0  0  0  0
    8.5811   -0.5643   21.3788 C   0  0  0  0  0  0  0  0  0  0  0  0
    9.6317    0.3186   20.8034 C   0  0  0  0  0  0  0  0  0  0  0  0
   10.3119    1.1467   21.8676 C   0  0  0  0  0  0  0  0  0  0  0  0
    9.6908    2.2542   22.4696 C   0  0  0  0  0  0  0  0  0  0  0  0
    8.1234    2.7787   21.9327 Cl  0  0  0  0  0  0  0  0  0  0  0  0
   10.3052    2.9234   23.5383 C   0  0  0  0  0  0  0  0  0  0  0  0
   11.4897    2.5373   24.0384 N   0  0  0  0  0  0  0  0  0  0  0  0
   12.1016    1.4829   23.4813 C   0  0  0  0  0  0  0  0  0  0  0  0
   11.5458    0.7789   22.4114 C   0  0  0  0  0  0  0  0  0  0  0  0
   12.2082   -0.2787   21.9119 F   0  0  0  0  0  0  0  0  0  0  0  0
    8.8008   -1.4006   22.3666 N   0  0  0  0  0  0  0  0  0  0  0  0
  2  1  1  1
  2  3  1  0
  3  4  1  0
  4  5  1  6
  5  6  2  0
  6  7  1  0
  7  8  1  0
  8  9  2  0
  9 10  1  0
 10 11  2  0
 11 12  1  0
 12 13  2  0
  7 14  1  0
 14 15  1  0
 15 16  1  0
 16 17  2  0
 17 18  1  0
 17 19  1  0
 19 20  2  0
 20 21  1  0
 21 22  2  0
 22 23  1  0
 14 24  2  0
  4  2  1  0
 24  5  1  0
 13  8  1  0
 22 16  1  0
M  END
>  <cnnaffinity>  (43) 
-6.63256

>  <filename>  (43) 
C[C@@H]1C[C@H]1c1nc(Cc2c(F)cncc2Cl)n(-c2cccnc2)n1

>  <enamine_id>  (43) 
PV-006830046395

$$$$

     RDKit          3D

 24 26  0  0  0  0  0  0  0  0999 V2000
    8.3995   -3.5978   26.8766 C   0  0  0  0  0  0  0  0  0  0  0  0
    6.7037   -3.3940   26.3003 S   0  0  0  0  0  0  0  0  0  0  0  0
    6.9932   -2.2660   24.9186 C   0  0  0  0  0  0  0  0  0  0  0  0
    7.3736   -3.0000   23.6164 C   0  0  0  0  0  0  0  0  0  0  0  0
    7.5996   -2.0481   22.5018 C   0  0  0  0  0  0  0  0  0  0  0  0
    6.6558   -1.6392   21.6828 N   0  0  0  0  0  0  0  0  0  0  0  0
    7.2942   -0.7069   20.9322 N   0  0  0  0  0  0  0  0  0  0  0  0
    6.6255   -0.0210   19.8853 C   0  0  0  0  0  0  0  0  0  0  0  0
    5.4194    0.6329   20.1480 C   0  0  0  0  0  0  0  0  0  0  0  0
    4.7967    1.3173   19.0995 C   0  0  0  0  0  0  0  0  0  0  0  0
    5.3928    1.2984   17.8302 C   0  0  0  0  0  0  0  0  0  0  0  0
    6.5387    0.6547   17.5684 N   0  0  0  0  0  0  0  0  0  0  0  0
    7.1427    0.0227   18.5773 C   0  0  0  0  0  0  0  0  0  0  0  0
    8.5781   -0.5882   21.3746 C   0  0  0  0  0  0  0  0  0  0  0  0
    9.6338    0.3020   20.8129 C   0  0  0  0  0  0  0  0  0  0  0  0
   10.3182    1.1392   21.8741 C   0  0  0  0  0  0  0  0  0  0  0  0
    9.6982    2.2469   22.4800 C   0  0  0  0  0  0  0  0  0  0  0  0
    8.1254    2.7645   21.9497 Cl  0  0  0  0  0  0  0  0  0  0  0  0
   10.3113    2.9139   23.5523 C   0  0  0  0  0  0  0  0  0  0  0  0
   11.4976    2.5274   24.0487 N   0  0  0  0  0  0  0  0  0  0  0  0
   12.1177    1.4827   23.4812 C   0  0  0  0  0  0  0  0  0  0  0  0
   11.5627    0.7838   22.4069 C   0  0  0  0  0  0  0  0  0  0  0  0
   12.2372   -0.2614   21.8957 F   0  0  0  0  0  0  0  0  0  0  0  0
    8.8013   -1.4436   22.3469 N   0  0  0  0  0  0  0  0  0  0  0  0
  1  2  1  0
  2  3  1  0
  3  4  1  0
  4  5  1  0
  5  6  2  0
  6  7  1  0
  7  8  1  0
  8  9  2  0
  9 10  1  0
 10 11  2  0
 11 12  1  0
 12 13  2  0
  7 14  1  0
 14 15  1  0
 15 16  1  0
 16 17  2  0
 17 18  1  0
 17 19  1  0
 19 20  2  0
 20 21  1  0
 21 22  2  0
 22 23  1  0
 14 24  2  0
 24  5  1  0
 13  8  1  0
 22 16  1  0
M  END
>  <cnnaffinity>  (44) 
-6.63057

>  <filename>  (44) 
CSCCc1nc(Cc2c(F)cncc2Cl)n(-c2cccnc2)n1

>  <enamine_id>  (44) 
PV-007069542014

$$$$

     RDKit          3D

 28 31  0  0  0  0  0  0  0  0999 V2000
    7.9171   -5.2814   27.1287 F   0  0  0  0  0  0  0  0  0  0  0  0
    8.1937   -4.3618   26.1531 C   0  0  0  0  0  0  0  0  0  0  0  0
    9.4124   -3.8178   26.4857 F   0  0  0  0  0  0  0  0  0  0  0  0
    7.1426   -3.2582   26.1670 C   0  0  0  0  0  0  0  0  0  0  0  0
    7.3649   -2.2474   25.0344 C   0  0  0  0  0  0  0  0  0  0  0  0
    7.4527   -2.9531   23.6573 C   0  0  0  0  0  0  0  0  0  0  0  0
    7.6701   -1.9575   22.5581 C   0  0  0  0  0  0  0  0  0  0  0  0
    6.7444   -1.6144   21.6920 N   0  0  0  0  0  0  0  0  0  0  0  0
    7.3611   -0.6669   20.9384 N   0  0  0  0  0  0  0  0  0  0  0  0
    6.6598    0.0098   19.9013 C   0  0  0  0  0  0  0  0  0  0  0  0
    5.4405    0.6462   20.1650 C   0  0  0  0  0  0  0  0  0  0  0  0
    4.8110    1.3112   19.1098 C   0  0  0  0  0  0  0  0  0  0  0  0
    5.4015    1.2946   17.8395 C   0  0  0  0  0  0  0  0  0  0  0  0
    6.5630    0.6764   17.5792 N   0  0  0  0  0  0  0  0  0  0  0  0
    7.1730    0.0571   18.5943 C   0  0  0  0  0  0  0  0  0  0  0  0
    8.6222   -0.4708   21.4227 C   0  0  0  0  0  0  0  0  0  0  0  0
    9.5222    0.6228   20.9491 C   0  0  0  0  0  0  0  0  0  0  0  0
    9.0406    2.0160   21.3878 C   0  0  0  0  0  0  0  0  0  0  0  0
    9.0051    2.1792   22.9175 C   0  0  0  0  0  0  0  0  0  0  0  0
    8.5453    3.5547   23.3186 C   0  0  0  0  0  0  0  0  0  0  0  0
    9.4576    4.6313   23.4266 C   0  0  0  0  0  0  0  0  0  0  0  0
    9.0870    5.8880   23.7397 N   0  0  0  0  0  0  0  0  0  0  0  0
    7.7634    6.0593   23.9235 C   0  0  0  0  0  0  0  0  0  0  0  0
    6.8452    5.0041   23.8043 C   0  0  0  0  0  0  0  0  0  0  0  0
    7.2228    3.7467   23.5046 N   0  0  0  0  0  0  0  0  0  0  0  0
    8.8487   -1.2850   22.4307 N   0  0  0  0  0  0  0  0  0  0  0  0
    8.5436   -4.0492   23.6648 C   0  0  0  0  0  0  0  0  0  0  0  0
    8.3151   -5.0559   24.8009 C   0  0  0  0  0  0  0  0  0  0  0  0
  1  2  1  0
  2  3  1  0
  2  4  1  0
  4  5  1  0
  5  6  1  0
  6  7  1  0
  7  8  2  0
  8  9  1  0
  9 10  1  0
 10 11  2  0
 11 12  1  0
 12 13  2  0
 13 14  1  0
 14 15  2  0
  9 16  1  0
 16 17  1  0
 17 18  1  0
 18 19  1  0
 19 20  1  0
 20 21  2  0
 21 22  1  0
 22 23  2  0
 23 24  1  0
 24 25  2  0
 16 26  2  0
  6 27  1  0
 27 28  1  0
 28  2  1  0
 26  7  1  0
 15 10  1  0
 25 20  1  0
M  END
>  <cnnaffinity>  (45) 
-6.62599

>  <filename>  (45) 
FC1(F)CCC(c2nc(CCCc3cnccn3)n(-c3cccnc3)n2)CC1

>  <enamine_id>  (45) 
PV-007090957938

$$$$

     RDKit          3D

 25 28  0  0  0  0  0  0  0  0999 V2000
   11.6821    1.6764   23.5861 O   0  0  0  0  0  0  0  0  0  0  0  0
   11.9824    0.7082   22.9016 C   0  0  0  0  0  0  0  0  0  0  0  0
   13.2753    0.0360   22.9650 C   0  0  0  0  0  0  0  0  0  0  0  0
   13.5909   -1.0268   22.1693 C   0  0  0  0  0  0  0  0  0  0  0  0
   12.6243   -1.5227   21.2415 C   0  0  0  0  0  0  0  0  0  0  0  0
   11.4042   -0.9358   21.1844 C   0  0  0  0  0  0  0  0  0  0  0  0
   11.0710    0.1544   21.9530 N   0  0  0  0  0  0  0  0  0  0  0  0
    9.7039    0.6832   21.8089 C   0  0  0  0  0  0  0  0  0  0  0  0
    8.6483   -0.3675   22.0187 C   0  0  0  0  0  0  0  0  0  0  0  0
    8.6363   -1.1952   23.0408 N   0  0  0  0  0  0  0  0  0  0  0  0
    7.5784   -2.0072   22.7819 C   0  0  0  0  0  0  0  0  0  0  0  0
    7.2805   -3.1771   23.6747 C   0  0  1  0  0  0  0  0  0  0  0  0
    8.2494   -4.3447   23.3233 C   0  0  0  0  0  0  0  0  0  0  0  0
    8.3187   -5.4068   24.3903 C   0  0  0  0  0  0  0  0  0  0  0  0
    7.8539   -5.2412   25.6314 C   0  0  0  0  0  0  0  0  0  0  0  0
    7.1812   -3.9758   26.1094 C   0  0  0  0  0  0  0  0  0  0  0  0
    7.4017   -2.7797   25.1669 C   0  0  0  0  0  0  0  0  0  0  0  0
    6.9287   -1.7234   21.6763 N   0  0  0  0  0  0  0  0  0  0  0  0
    7.6247   -0.6629   21.1641 N   0  0  0  0  0  0  0  0  0  0  0  0
    7.0498    0.0755   20.0777 C   0  0  0  0  0  0  0  0  0  0  0  0
    5.8410    0.7517   20.2914 C   0  0  0  0  0  0  0  0  0  0  0  0
    5.2050    1.3463   19.2005 C   0  0  0  0  0  0  0  0  0  0  0  0
    5.7919    1.2404   17.9339 C   0  0  0  0  0  0  0  0  0  0  0  0
    6.9686    0.6332   17.7269 N   0  0  0  0  0  0  0  0  0  0  0  0
    7.5866    0.0780   18.7790 C   0  0  0  0  0  0  0  0  0  0  0  0
  1  2  2  0
  2  3  1  0
  3  4  2  0
  4  5  1  0
  5  6  2  0
  6  7  1  0
  7  8  1  0
  8  9  1  0
  9 10  2  0
 10 11  1  0
 12 11  1  6
 12 13  1  0
 13 14  1  0
 14 15  2  0
 15 16  1  0
 16 17  1  0
 11 18  2  0
 18 19  1  0
 19 20  1  0
 20 21  2  0
 21 22  1  0
 22 23  2  0
 23 24  1  0
 24 25  2  0
  7  2  1  0
 19  9  1  0
 25 20  1  0
 17 12  1  0
M  END
>  <cnnaffinity>  (46) 
-6.62476

>  <filename>  (46) 
O=c1ccccn1Cc1nc(C2CC=CCC2)nn1-c1cccnc1

>  <enamine_id>  (46) 
PV-006877400380

$$$$

     RDKit          3D

 24 26  0  0  0  0  0  0  0  0999 V2000
    6.9416   -4.9554   21.7677 C   0  0  0  0  0  0  0  0  0  0  0  0
    7.7960   -4.5236   22.9621 C   0  0  0  0  0  0  0  0  0  0  0  0
    7.4211   -3.1308   23.5395 C   0  0  2  0  0  0  0  0  0  0  0  0
    6.0212   -3.0816   24.1711 C   0  0  0  0  0  0  0  0  0  0  0  0
    7.5887   -2.0532   22.5078 C   0  0  0  0  0  0  0  0  0  0  0  0
    6.6529   -1.6385   21.6730 N   0  0  0  0  0  0  0  0  0  0  0  0
    7.3027   -0.7109   20.9249 N   0  0  0  0  0  0  0  0  0  0  0  0
    6.6304   -0.0251   19.8832 C   0  0  0  0  0  0  0  0  0  0  0  0
    5.4239    0.6278   20.1489 C   0  0  0  0  0  0  0  0  0  0  0  0
    4.7991    1.3126   19.1028 C   0  0  0  0  0  0  0  0  0  0  0  0
    5.3922    1.2971   17.8324 C   0  0  0  0  0  0  0  0  0  0  0  0
    6.5389    0.6547   17.5669 N   0  0  0  0  0  0  0  0  0  0  0  0
    7.1445    0.0211   18.5736 C   0  0  0  0  0  0  0  0  0  0  0  0
    8.5818   -0.5959   21.3775 C   0  0  0  0  0  0  0  0  0  0  0  0
    9.6399    0.2868   20.8114 C   0  0  0  0  0  0  0  0  0  0  0  0
   10.3399    1.1143   21.8679 C   0  0  0  0  0  0  0  0  0  0  0  0
    9.7355    2.2269   22.4822 C   0  0  0  0  0  0  0  0  0  0  0  0
    8.1623    2.7628   21.9707 Cl  0  0  0  0  0  0  0  0  0  0  0  0
   10.3665    2.8841   23.5503 C   0  0  0  0  0  0  0  0  0  0  0  0
   11.5538    2.4855   24.0330 N   0  0  0  0  0  0  0  0  0  0  0  0
   12.1589    1.4355   23.4572 C   0  0  0  0  0  0  0  0  0  0  0  0
   11.5854    0.7448   22.3866 C   0  0  0  0  0  0  0  0  0  0  0  0
   12.2430   -0.3065   21.8667 F   0  0  0  0  0  0  0  0  0  0  0  0
    8.7910   -1.4519   22.3554 N   0  0  0  0  0  0  0  0  0  0  0  0
  1  2  1  0
  2  3  1  0
  3  4  1  6
  3  5  1  0
  5  6  2  0
  6  7  1  0
  7  8  1  0
  8  9  2  0
  9 10  1  0
 10 11  2  0
 11 12  1  0
 12 13  2  0
  7 14  1  0
 14 15  1  0
 15 16  1  0
 16 17  2  0
 17 18  1  0
 17 19  1  0
 19 20  2  0
 20 21  1  0
 21 22  2  0
 22 23  1  0
 14 24  2  0
 24  5  1  0
 13  8  1  0
 22 16  1  0
M  END
>  <cnnaffinity>  (47) 
-6.62206

>  <filename>  (47) 
CCC(C)c1nc(Cc2c(F)cncc2Cl)n(-c2cccnc2)n1

>  <enamine_id>  (47) 
PV-006942965726

$$$$

     RDKit          3D

 24 27  0  0  0  0  0  0  0  0999 V2000
   12.1703   -1.4134   21.1396 C   0  0  0  0  0  0  0  0  0  0  0  0
   11.9007   -0.1442   21.9017 C   0  0  0  0  0  0  0  0  0  0  0  0
   12.8124    0.2926   22.8663 C   0  0  0  0  0  0  0  0  0  0  0  0
   12.5500    1.4703   23.5666 C   0  0  0  0  0  0  0  0  0  0  0  0
   11.3830    2.1730   23.2670 C   0  0  0  0  0  0  0  0  0  0  0  0
   10.4930    1.7768   22.3435 N   0  0  0  0  0  0  0  0  0  0  0  0
   10.7457    0.6486   21.6735 C   0  0  0  0  0  0  0  0  0  0  0  0
    9.6769    0.2419   20.6924 C   0  0  0  0  0  0  0  0  0  0  0  0
    8.6484   -0.5911   21.3521 C   0  0  0  0  0  0  0  0  0  0  0  0
    8.8719   -1.4458   22.3242 N   0  0  0  0  0  0  0  0  0  0  0  0
    7.6449   -1.9743   22.5644 C   0  0  0  0  0  0  0  0  0  0  0  0
    7.3901   -2.9494   23.6778 C   0  0  0  0  0  0  0  0  0  0  0  0
    7.7318   -2.3591   25.0698 C   0  0  0  0  0  0  0  0  0  0  0  0
    9.2088   -2.7188   25.3379 C   0  0  0  0  0  0  0  0  0  0  0  0
    9.5605   -3.8944   24.3981 C   0  0  0  0  0  0  0  0  0  0  0  0
    8.2899   -4.2042   23.5770 C   0  0  0  0  0  0  0  0  0  0  0  0
    6.6943   -1.5425   21.7595 N   0  0  0  0  0  0  0  0  0  0  0  0
    7.3462   -0.6756   20.9388 N   0  0  0  0  0  0  0  0  0  0  0  0
    6.6528    0.0044   19.9023 C   0  0  0  0  0  0  0  0  0  0  0  0
    5.4366    0.6450   20.1656 C   0  0  0  0  0  0  0  0  0  0  0  0
    4.8121    1.3107   19.1086 C   0  0  0  0  0  0  0  0  0  0  0  0
    5.4008    1.2957   17.8366 C   0  0  0  0  0  0  0  0  0  0  0  0
    6.5596    0.6722   17.5761 N   0  0  0  0  0  0  0  0  0  0  0  0
    7.1653    0.0513   18.5932 C   0  0  0  0  0  0  0  0  0  0  0  0
  1  2  1  0
  2  3  2  0
  3  4  1  0
  4  5  2  0
  5  6  1  0
  6  7  2  0
  7  8  1  0
  8  9  1  0
  9 10  2  0
 10 11  1  0
 11 12  1  0
 12 13  1  0
 13 14  1  0
 14 15  1  0
 15 16  1  0
 11 17  2  0
 17 18  1  0
 18 19  1  0
 19 20  2  0
 20 21  1  0
 21 22  2  0
 22 23  1  0
 23 24  2  0
  7  2  1  0
 18  9  1  0
 24 19  1  0
 16 12  1  0
M  END
>  <cnnaffinity>  (48) 
-6.61612

>  <filename>  (48) 
Cc1cccnc1Cc1nc(C2CCCC2)nn1-c1cccnc1

>  <enamine_id>  (48) 
PV-006771851214

$$$$

     RDKit          3D

 24 27  0  0  0  0  0  0  0  0999 V2000
   12.0364   -1.1675   21.1206 O   0  0  0  0  0  0  0  0  0  0  0  0
   11.8726   -0.1624   21.7893 C   0  0  0  0  0  0  0  0  0  0  0  0
   12.7982    0.2706   22.8229 C   0  0  0  0  0  0  0  0  0  0  0  0
   12.5734    1.3814   23.5732 C   0  0  0  0  0  0  0  0  0  0  0  0
   11.3919    2.1583   23.3544 C   0  0  0  0  0  0  0  0  0  0  0  0
   10.5115    1.7750   22.3916 C   0  0  0  0  0  0  0  0  0  0  0  0
   10.7290    0.6731   21.6010 N   0  0  0  0  0  0  0  0  0  0  0  0
    9.6526    0.2196   20.7106 C   0  0  0  0  0  0  0  0  0  0  0  0
    8.6042   -0.6138   21.3741 C   0  0  0  0  0  0  0  0  0  0  0  0
    8.8077   -1.4586   22.3571 N   0  0  0  0  0  0  0  0  0  0  0  0
    7.5773   -1.9920   22.5697 C   0  0  0  0  0  0  0  0  0  0  0  0
    7.3578   -2.9593   23.6850 C   0  0  0  0  0  0  0  0  0  0  0  0
    8.2483   -4.2217   23.5816 C   0  0  0  0  0  0  0  0  0  0  0  0
    8.3446   -4.7722   25.0201 C   0  0  0  0  0  0  0  0  0  0  0  0
    8.0161   -3.5889   25.9725 C   0  0  0  0  0  0  0  0  0  0  0  0
    7.7161   -2.3701   25.0745 C   0  0  0  0  0  0  0  0  0  0  0  0
    6.6419   -1.5570   21.7523 N   0  0  0  0  0  0  0  0  0  0  0  0
    7.3112   -0.6883   20.9498 N   0  0  0  0  0  0  0  0  0  0  0  0
    6.6457   -0.0025   19.8969 C   0  0  0  0  0  0  0  0  0  0  0  0
    5.4332    0.6463   20.1555 C   0  0  0  0  0  0  0  0  0  0  0  0
    4.8072    1.3162   19.1032 C   0  0  0  0  0  0  0  0  0  0  0  0
    5.3982    1.2979   17.8341 C   0  0  0  0  0  0  0  0  0  0  0  0
    6.5531    0.6677   17.5767 N   0  0  0  0  0  0  0  0  0  0  0  0
    7.1606    0.0401   18.5883 C   0  0  0  0  0  0  0  0  0  0  0  0
  1  2  2  0
  2  3  1  0
  3  4  2  0
  4  5  1  0
  5  6  2  0
  6  7  1  0
  7  8  1  0
  8  9  1  0
  9 10  2  0
 10 11  1  0
 11 12  1  0
 12 13  1  0
 13 14  1  0
 14 15  1  0
 15 16  1  0
 11 17  2  0
 17 18  1  0
 18 19  1  0
 19 20  2  0
 20 21  1  0
 21 22  2  0
 22 23  1  0
 23 24  2  0
  7  2  1  0
 18  9  1  0
 24 19  1  0
 16 12  1  0
M  END
>  <cnnaffinity>  (49) 
-6.60768

>  <filename>  (49) 
O=c1ccccn1Cc1nc(C2CCCC2)nn1-c1cccnc1

>  <enamine_id>  (49) 
PV-006752088766

$$$$

     RDKit          3D

 24 27  0  0  0  0  0  0  0  0999 V2000
    7.7623   -4.5859   26.0245 C   0  0  0  0  0  0  0  0  0  0  0  0
    7.5334   -3.2801   26.1883 C   0  0  0  0  0  0  0  0  0  0  0  0
    7.5415   -2.2879   25.0501 C   0  0  0  0  0  0  0  0  0  0  0  0
    7.3999   -2.9681   23.6608 C   0  0  1  0  0  0  0  0  0  0  0  0
    7.6362   -1.9952   22.5459 C   0  0  0  0  0  0  0  0  0  0  0  0
    6.6845   -1.5545   21.7519 N   0  0  0  0  0  0  0  0  0  0  0  0
    7.3373   -0.6832   20.9374 N   0  0  0  0  0  0  0  0  0  0  0  0
    6.6519    0.0034   19.9012 C   0  0  0  0  0  0  0  0  0  0  0  0
    5.4364    0.6455   20.1669 C   0  0  0  0  0  0  0  0  0  0  0  0
    4.8123    1.3111   19.1092 C   0  0  0  0  0  0  0  0  0  0  0  0
    5.4019    1.2947   17.8377 C   0  0  0  0  0  0  0  0  0  0  0  0
    6.5609    0.6715   17.5771 N   0  0  0  0  0  0  0  0  0  0  0  0
    7.1673    0.0515   18.5938 C   0  0  0  0  0  0  0  0  0  0  0  0
    8.6378   -0.6040   21.3489 C   0  0  0  0  0  0  0  0  0  0  0  0
    9.6684    0.2380   20.6986 C   0  0  0  0  0  0  0  0  0  0  0  0
   10.6879    0.7115   21.6918 C   0  0  0  0  0  0  0  0  0  0  0  0
   11.8614   -0.0176   21.9275 C   0  0  0  0  0  0  0  0  0  0  0  0
   12.7595    0.4129   22.9044 C   0  0  0  0  0  0  0  0  0  0  0  0
   12.4404    1.5765   23.6061 C   0  0  0  0  0  0  0  0  0  0  0  0
   11.2493    2.2413   23.2949 C   0  0  0  0  0  0  0  0  0  0  0  0
   10.3786    1.8258   22.3620 N   0  0  0  0  0  0  0  0  0  0  0  0
    8.8653   -1.4624   22.3141 N   0  0  0  0  0  0  0  0  0  0  0  0
    8.3353   -4.1935   23.5768 C   0  0  0  0  0  0  0  0  0  0  0  0
    7.9881   -5.2185   24.6702 C   0  0  0  0  0  0  0  0  0  0  0  0
  1  2  2  0
  2  3  1  0
  3  4  1  0
  4  5  1  6
  5  6  2  0
  6  7  1  0
  7  8  1  0
  8  9  2  0
  9 10  1  0
 10 11  2  0
 11 12  1  0
 12 13  2  0
  7 14  1  0
 14 15  1  0
 15 16  1  0
 16 17  2  0
 17 18  1  0
 18 19  2  0
 19 20  1  0
 20 21  2  0
 14 22  2  0
  4 23  1  0
 23 24  1  0
 24  1  1  0
 22  5  1  0
 13  8  1  0
 21 16  1  0
M  END
>  <cnnaffinity>  (50) 
-6.60487

>  <filename>  (50) 
C1=CCC(c2nc(Cc3ccccn3)n(-c3cccnc3)n2)CC1

>  <enamine_id>  (50) 
PV-007159366037

$$$$

     RDKit          3D

 27 30  0  0  0  0  0  0  0  0999 V2000
    6.9617    2.0776   23.4485 C   0  0  0  0  0  0  0  0  0  0  0  0
    7.9370    2.7103   22.0628 S   0  0  0  0  0  0  0  0  0  0  0  0
    7.8759    4.1989   22.2472 O   0  0  0  0  0  0  0  0  0  0  0  0
    9.5922    2.1565   22.5958 C   0  0  0  0  0  0  0  0  0  0  0  0
   10.1992    2.8293   23.6660 C   0  0  0  0  0  0  0  0  0  0  0  0
   11.4854    2.4686   24.0699 C   0  0  0  0  0  0  0  0  0  0  0  0
   12.1847    1.4615   23.3998 C   0  0  0  0  0  0  0  0  0  0  0  0
   11.5695    0.8032   22.3306 C   0  0  0  0  0  0  0  0  0  0  0  0
   10.2746    1.1323   21.9196 C   0  0  0  0  0  0  0  0  0  0  0  0
    9.6192    0.3244   20.8243 C   0  0  0  0  0  0  0  0  0  0  0  0
    8.5889   -0.5902   21.3694 C   0  0  0  0  0  0  0  0  0  0  0  0
    8.8233   -1.4272   22.3554 N   0  0  0  0  0  0  0  0  0  0  0  0
    7.6096   -1.9982   22.5615 C   0  0  0  0  0  0  0  0  0  0  0  0
    7.3828   -2.9453   23.6910 C   0  0  1  0  0  0  0  0  0  0  0  0
    8.3616   -4.1524   23.6348 C   0  0  0  0  0  0  0  0  0  0  0  0
    8.2901   -4.9901   24.8913 C   0  0  0  0  0  0  0  0  0  0  0  0
    7.7761   -4.5503   26.0421 C   0  0  0  0  0  0  0  0  0  0  0  0
    7.1475   -3.1825   26.2117 C   0  0  0  0  0  0  0  0  0  0  0  0
    7.5137   -2.2239   25.0630 C   0  0  0  0  0  0  0  0  0  0  0  0
    6.6555   -1.5870   21.7500 N   0  0  0  0  0  0  0  0  0  0  0  0
    7.2998   -0.6994   20.9482 N   0  0  0  0  0  0  0  0  0  0  0  0
    6.6314   -0.0199   19.8917 C   0  0  0  0  0  0  0  0  0  0  0  0
    5.4274    0.6384   20.1482 C   0  0  0  0  0  0  0  0  0  0  0  0
    4.8033    1.3201   19.1003 C   0  0  0  0  0  0  0  0  0  0  0  0
    5.3932    1.2986   17.8314 C   0  0  0  0  0  0  0  0  0  0  0  0
    6.5419    0.6559   17.5717 N   0  0  0  0  0  0  0  0  0  0  0  0
    7.1482    0.0259   18.5833 C   0  0  0  0  0  0  0  0  0  0  0  0
  2  1  1  1
  2  3  2  0
  2  4  1  0
  4  5  2  0
  5  6  1  0
  6  7  2  0
  7  8  1  0
  8  9  2  0
  9 10  1  0
 10 11  1  0
 11 12  2  0
 12 13  1  0
 14 13  1  6
 14 15  1  0
 15 16  1  0
 16 17  2  0
 17 18  1  0
 18 19  1  0
 13 20  2  0
 20 21  1  0
 21 22  1  0
 22 23  2  0
 23 24  1  0
 24 25  2  0
 25 26  1  0
 26 27  2  0
  9  4  1  0
 21 11  1  0
 27 22  1  0
 19 14  1  0
M  END
>  <cnnaffinity>  (51) 
-6.59684

>  <filename>  (51) 
CS(=O)c1ccccc1Cc1nc(C2CC=CCC2)nn1-c1cccnc1

>  <enamine_id>  (51) 
PV-007073242233

$$$$

     RDKit          3D

 27 30  0  0  0  0  0  0  0  0999 V2000
    4.4641   -4.5447   24.7088 F   0  0  0  0  0  0  0  0  0  0  0  0
    5.7070   -4.7183   25.2687 C   0  0  0  0  0  0  0  0  0  0  0  0
    5.5294   -5.6202   26.2824 F   0  0  0  0  0  0  0  0  0  0  0  0
    6.1837   -3.3870   25.8327 C   0  0  0  0  0  0  0  0  0  0  0  0
    6.4703   -2.3730   24.7213 C   0  0  0  0  0  0  0  0  0  0  0  0
    7.4375   -2.9472   23.6580 C   0  0  0  0  0  0  0  0  0  0  0  0
    7.6869   -1.9504   22.5666 C   0  0  0  0  0  0  0  0  0  0  0  0
    6.7545   -1.6064   21.6940 N   0  0  0  0  0  0  0  0  0  0  0  0
    7.3707   -0.6661   20.9380 N   0  0  0  0  0  0  0  0  0  0  0  0
    6.6607    0.0071   19.9018 C   0  0  0  0  0  0  0  0  0  0  0  0
    5.4418    0.6427   20.1692 C   0  0  0  0  0  0  0  0  0  0  0  0
    4.8128    1.3092   19.1109 C   0  0  0  0  0  0  0  0  0  0  0  0
    5.4023    1.2950   17.8393 C   0  0  0  0  0  0  0  0  0  0  0  0
    6.5635    0.6757   17.5783 N   0  0  0  0  0  0  0  0  0  0  0  0
    7.1710    0.0566   18.5947 C   0  0  0  0  0  0  0  0  0  0  0  0
    8.6318   -0.4773   21.4180 C   0  0  0  0  0  0  0  0  0  0  0  0
    9.5336    0.6071   20.9351 C   0  0  0  0  0  0  0  0  0  0  0  0
    9.0466    2.0109   21.3256 C   0  0  0  0  0  0  0  0  0  0  0  0
    8.9702    2.2105   22.8400 C   0  0  0  0  0  0  0  0  0  0  0  0
    8.5366    3.5474   23.1971 N   0  0  0  0  0  0  0  0  0  0  0  0
    9.3402    4.6550   23.3579 C   0  0  0  0  0  0  0  0  0  0  0  0
    8.4881    5.7022   23.5469 C   0  0  0  0  0  0  0  0  0  0  0  0
    7.1834    5.2811   23.4990 N   0  0  0  0  0  0  0  0  0  0  0  0
    7.2495    3.9937   23.2708 C   0  0  0  0  0  0  0  0  0  0  0  0
    8.8613   -1.2843   22.4371 N   0  0  0  0  0  0  0  0  0  0  0  0
    6.9235   -4.2904   23.0949 C   0  0  0  0  0  0  0  0  0  0  0  0
    6.6409   -5.2972   24.2148 C   0  0  0  0  0  0  0  0  0  0  0  0
  1  2  1  0
  2  3  1  0
  2  4  1  0
  4  5  1  0
  5  6  1  0
  6  7  1  0
  7  8  2  0
  8  9  1  0
  9 10  1  0
 10 11  2  0
 11 12  1  0
 12 13  2  0
 13 14  1  0
 14 15  2  0
  9 16  1  0
 16 17  1  0
 17 18  1  0
 18 19  1  0
 19 20  1  0
 20 21  1  0
 21 22  2  0
 22 23  1  0
 23 24  2  0
 16 25  2  0
  6 26  1  0
 26 27  1  0
 27  2  1  0
 25  7  1  0
 15 10  1  0
 24 20  1  0
M  END
>  <cnnaffinity>  (52) 
-6.59155

>  <filename>  (52) 
FC1(F)CCC(c2nc(CCCn3ccnc3)n(-c3cccnc3)n2)CC1

>  <enamine_id>  (52) 
PV-007025345956

$$$$

     RDKit          3D

 26 29  0  0  0  0  0  0  0  0999 V2000
   11.9663    0.4584   23.0862 C   0  0  0  0  0  0  0  0  0  0  0  0
   10.8888    1.4829   22.9739 C   0  0  0  0  0  0  0  0  0  0  0  0
   10.6912    2.4419   23.8694 N   0  0  0  0  0  0  0  0  0  0  0  0
    9.5688    3.0701   23.4593 N   0  0  0  0  0  0  0  0  0  0  0  0
    9.0514    4.1903   24.2136 C   0  0  0  0  0  0  0  0  0  0  0  0
    9.0392    2.5210   22.3326 C   0  0  0  0  0  0  0  0  0  0  0  0
    7.7216    2.8964   21.7209 C   0  0  0  0  0  0  0  0  0  0  0  0
    9.8914    1.4976   21.9727 C   0  0  0  0  0  0  0  0  0  0  0  0
    9.6238    0.4404   20.9267 C   0  0  0  0  0  0  0  0  0  0  0  0
    8.6175   -0.5758   21.3695 C   0  0  0  0  0  0  0  0  0  0  0  0
    8.8516   -1.4548   22.3233 N   0  0  0  0  0  0  0  0  0  0  0  0
    7.6410   -2.0505   22.5028 C   0  0  0  0  0  0  0  0  0  0  0  0
    7.4227   -3.0664   23.5775 C   0  0  1  0  0  0  0  0  0  0  0  0
    8.3329   -4.3086   23.3618 C   0  0  0  0  0  0  0  0  0  0  0  0
    8.3053   -5.2483   24.5447 C   0  0  0  0  0  0  0  0  0  0  0  0
    7.8768   -4.8939   25.7596 C   0  0  0  0  0  0  0  0  0  0  0  0
    7.3228   -3.5228   26.0827 C   0  0  0  0  0  0  0  0  0  0  0  0
    7.6636   -2.4798   24.9986 C   0  0  0  0  0  0  0  0  0  0  0  0
    6.6934   -1.6279   21.6919 N   0  0  0  0  0  0  0  0  0  0  0  0
    7.3316   -0.6951   20.9333 N   0  0  0  0  0  0  0  0  0  0  0  0
    6.6421   -0.0152   19.8898 C   0  0  0  0  0  0  0  0  0  0  0  0
    5.4307    0.6320   20.1515 C   0  0  0  0  0  0  0  0  0  0  0  0
    4.8023    1.3158   19.1037 C   0  0  0  0  0  0  0  0  0  0  0  0
    5.3943    1.3039   17.8350 C   0  0  0  0  0  0  0  0  0  0  0  0
    6.5450    0.6664   17.5707 N   0  0  0  0  0  0  0  0  0  0  0  0
    7.1530    0.0353   18.5828 C   0  0  0  0  0  0  0  0  0  0  0  0
  1  2  1  0
  2  3  2  0
  3  4  1  0
  4  5  1  0
  4  6  1  0
  6  7  1  0
  6  8  2  0
  8  9  1  0
  9 10  1  0
 10 11  2  0
 11 12  1  0
 13 12  1  6
 13 14  1  0
 14 15  1  0
 15 16  2  0
 16 17  1  0
 17 18  1  0
 12 19  2  0
 19 20  1  0
 20 21  1  0
 21 22  2  0
 22 23  1  0
 23 24  2  0
 24 25  1  0
 25 26  2  0
  8  2  1  0
 20 10  1  0
 26 21  1  0
 18 13  1  0
M  END
>  <cnnaffinity>  (53) 
-6.58776

>  <filename>  (53) 
Cc1nn(C)c(C)c1Cc1nc(C2CC=CCC2)nn1-c1cccnc1

>  <enamine_id>  (53) 
PV-006831292310

$$$$

     RDKit          3D

 28 31  0  0  0  0  0  0  0  0999 V2000
    8.8048    3.8854   23.6861 C   0  0  0  0  0  0  0  0  0  0  0  0
    8.7431    2.5113   22.6113 S   0  0  0  0  0  0  0  0  0  0  0  0
    8.5307    3.0548   21.2751 O   0  0  0  0  0  0  0  0  0  0  0  0
    7.7744    1.5886   23.1909 O   0  0  0  0  0  0  0  0  0  0  0  0
   10.3834    1.8092   22.6728 C   0  0  0  0  0  0  0  0  0  0  0  0
   11.3561    2.1976   23.6175 C   0  0  0  0  0  0  0  0  0  0  0  0
   12.5553    1.4927   23.6928 C   0  0  0  0  0  0  0  0  0  0  0  0
   12.8127    0.4264   22.8263 C   0  0  0  0  0  0  0  0  0  0  0  0
   11.8545    0.0938   21.8687 C   0  0  0  0  0  0  0  0  0  0  0  0
   10.6390    0.7736   21.7595 C   0  0  0  0  0  0  0  0  0  0  0  0
    9.6156    0.2903   20.7555 C   0  0  0  0  0  0  0  0  0  0  0  0
    8.5758   -0.5728   21.3853 C   0  0  0  0  0  0  0  0  0  0  0  0
    8.7986   -1.3901   22.3831 N   0  0  0  0  0  0  0  0  0  0  0  0
    7.5788   -1.9239   22.6359 C   0  0  0  0  0  0  0  0  0  0  0  0
    7.3118   -2.7791   23.8544 C   0  0  1  0  0  0  0  0  0  0  0  0
    8.5411   -3.6347   24.2640 C   0  0  0  0  0  0  0  0  0  0  0  0
    9.5771   -2.8496   25.0390 C   0  0  0  0  0  0  0  0  0  0  0  0
    9.3445   -1.6445   25.5680 C   0  0  0  0  0  0  0  0  0  0  0  0
    8.0146   -0.9373   25.4765 C   0  0  0  0  0  0  0  0  0  0  0  0
    6.8771   -1.8823   25.0487 C   0  0  0  0  0  0  0  0  0  0  0  0
    6.6286   -1.5427   21.8020 N   0  0  0  0  0  0  0  0  0  0  0  0
    7.2834   -0.6916   20.9596 N   0  0  0  0  0  0  0  0  0  0  0  0
    6.5966   -0.0327   19.9045 C   0  0  0  0  0  0  0  0  0  0  0  0
    5.3930    0.6350   20.1585 C   0  0  0  0  0  0  0  0  0  0  0  0
    4.7957    1.3148   19.0939 C   0  0  0  0  0  0  0  0  0  0  0  0
    5.3949    1.2909   17.8309 C   0  0  0  0  0  0  0  0  0  0  0  0
    6.5341    0.6306   17.5780 N   0  0  0  0  0  0  0  0  0  0  0  0
    7.1166   -0.0109   18.5972 C   0  0  0  0  0  0  0  0  0  0  0  0
  1  2  1  0
  2  3  2  0
  2  4  2  0
  2  5  1  0
  5  6  2  0
  6  7  1  0
  7  8  2  0
  8  9  1  0
  9 10  2  0
 10 11  1  0
 11 12  1  0
 12 13  2  0
 13 14  1  0
 15 14  1  6
 15 16  1  0
 16 17  1  0
 17 18  2  0
 18 19  1  0
 19 20  1  0
 14 21  2  0
 21 22  1  0
 22 23  1  0
 23 24  2  0
 24 25  1  0
 25 26  2  0
 26 27  1  0
 27 28  2  0
 10  5  1  0
 22 12  1  0
 28 23  1  0
 20 15  1  0
M  END
>  <cnnaffinity>  (54) 
-6.58588

>  <filename>  (54) 
CS(=O)(=O)c1ccccc1Cc1nc(C2CC=CCC2)nn1-c1cccnc1

>  <enamine_id>  (54) 
PV-006982734881

$$$$

     RDKit          3D

 25 28  0  0  0  0  0  0  0  0999 V2000
   12.1832   -1.5510   21.1803 Cl  0  0  0  0  0  0  0  0  0  0  0  0
   11.8683   -0.0270   21.9566 C   0  0  0  0  0  0  0  0  0  0  0  0
   12.7696    0.3997   22.9365 C   0  0  0  0  0  0  0  0  0  0  0  0
   12.5204    1.5915   23.6168 C   0  0  0  0  0  0  0  0  0  0  0  0
   11.3751    2.3422   23.3346 C   0  0  0  0  0  0  0  0  0  0  0  0
   10.4870    1.8979   22.3522 C   0  0  0  0  0  0  0  0  0  0  0  0
   10.7229    0.7182   21.6314 C   0  0  0  0  0  0  0  0  0  0  0  0
    9.6638    0.2255   20.6691 C   0  0  0  0  0  0  0  0  0  0  0  0
    8.6413   -0.6211   21.3343 C   0  0  0  0  0  0  0  0  0  0  0  0
    8.8662   -1.4714   22.3159 N   0  0  0  0  0  0  0  0  0  0  0  0
    7.6428   -1.9895   22.5509 C   0  0  0  0  0  0  0  0  0  0  0  0
    7.3815   -2.9514   23.6686 C   0  0  0  0  0  0  0  0  0  0  0  0
    6.6677   -4.2284   23.1749 C   0  0  0  0  0  0  0  0  0  0  0  0
    6.3541   -5.1892   24.3463 C   0  0  0  0  0  0  0  0  0  0  0  0
    6.5247   -4.5994   25.6236 O   0  0  0  0  0  0  0  0  0  0  0  0
    5.8905   -3.3406   25.7160 C   0  0  0  0  0  0  0  0  0  0  0  0
    6.5768   -2.2868   24.8222 C   0  0  0  0  0  0  0  0  0  0  0  0
    6.6833   -1.5473   21.7541 N   0  0  0  0  0  0  0  0  0  0  0  0
    7.3377   -0.6874   20.9373 N   0  0  0  0  0  0  0  0  0  0  0  0
    6.6478   -0.0019   19.9024 C   0  0  0  0  0  0  0  0  0  0  0  0
    5.4346    0.6408   20.1673 C   0  0  0  0  0  0  0  0  0  0  0  0
    4.8121    1.3098   19.1103 C   0  0  0  0  0  0  0  0  0  0  0  0
    5.3995    1.2955   17.8382 C   0  0  0  0  0  0  0  0  0  0  0  0
    6.5577    0.6708   17.5776 N   0  0  0  0  0  0  0  0  0  0  0  0
    7.1634    0.0482   18.5939 C   0  0  0  0  0  0  0  0  0  0  0  0
  1  2  1  0
  2  3  2  0
  3  4  1  0
  4  5  2  0
  5  6  1  0
  6  7  2  0
  7  8  1  0
  8  9  1  0
  9 10  2  0
 10 11  1  0
 11 12  1  0
 12 13  1  0
 13 14  1  0
 14 15  1  0
 15 16  1  0
 16 17  1  0
 11 18  2  0
 18 19  1  0
 19 20  1  0
 20 21  2  0
 21 22  1  0
 22 23  2  0
 23 24  1  0
 24 25  2  0
  7  2  1  0
 19  9  1  0
 25 20  1  0
 17 12  1  0
M  END
>  <cnnaffinity>  (55) 
-6.58468

>  <filename>  (55) 
Clc1ccccc1Cc1nc(C2CCOCC2)nn1-c1cccnc1

>  <enamine_id>  (55) 
PV-006755705361

$$$$

     RDKit          3D

 26 29  0  0  0  0  0  0  0  0999 V2000
    8.6700    2.7167   22.1534 C   0  0  0  0  0  0  0  0  0  0  0  0
   10.0234    2.1066   22.4555 C   0  0  0  0  0  0  0  0  0  0  0  0
   10.7997    2.6671   23.4713 C   0  0  0  0  0  0  0  0  0  0  0  0
   12.0346    2.1147   23.7949 C   0  0  0  0  0  0  0  0  0  0  0  0
   12.5152    0.9944   23.1305 C   0  0  0  0  0  0  0  0  0  0  0  0
   11.7511    0.3819   22.1347 C   0  0  0  0  0  0  0  0  0  0  0  0
   12.1950   -0.9565   21.5978 C   0  0  0  0  0  0  0  0  0  0  0  0
   10.5262    0.9841   21.7564 C   0  0  0  0  0  0  0  0  0  0  0  0
    9.6425    0.3126   20.7321 C   0  0  0  0  0  0  0  0  0  0  0  0
    8.6266   -0.5778   21.3582 C   0  0  0  0  0  0  0  0  0  0  0  0
    8.8591   -1.4346   22.3334 N   0  0  0  0  0  0  0  0  0  0  0  0
    7.6490   -2.0010   22.5391 C   0  0  0  0  0  0  0  0  0  0  0  0
    7.4099   -2.9931   23.6413 C   0  0  0  0  0  0  0  0  0  0  0  0
    6.4728   -2.4124   24.7342 C   0  0  0  0  0  0  0  0  0  0  0  0
    6.1036   -3.4837   25.7569 C   0  0  0  0  0  0  0  0  0  0  0  0
    5.5417   -4.6262   25.1337 O   0  0  0  0  0  0  0  0  0  0  0  0
    6.4447   -5.2525   24.2394 C   0  0  0  0  0  0  0  0  0  0  0  0
    6.8365   -4.3227   23.0937 C   0  0  0  0  0  0  0  0  0  0  0  0
    6.6922   -1.5832   21.7264 N   0  0  0  0  0  0  0  0  0  0  0  0
    7.3355   -0.6849   20.9394 N   0  0  0  0  0  0  0  0  0  0  0  0
    6.6449   -0.0074   19.8989 C   0  0  0  0  0  0  0  0  0  0  0  0
    5.4323    0.6379   20.1616 C   0  0  0  0  0  0  0  0  0  0  0  0
    4.8069    1.3099   19.1072 C   0  0  0  0  0  0  0  0  0  0  0  0
    5.3965    1.2949   17.8375 C   0  0  0  0  0  0  0  0  0  0  0  0
    6.5522    0.6664   17.5745 N   0  0  0  0  0  0  0  0  0  0  0  0
    7.1581    0.0394   18.5886 C   0  0  0  0  0  0  0  0  0  0  0  0
  1  2  1  0
  2  3  2  0
  3  4  1  0
  4  5  2  0
  5  6  1  0
  6  7  1  0
  6  8  2  0
  8  9  1  0
  9 10  1  0
 10 11  2  0
 11 12  1  0
 12 13  1  0
 13 14  1  0
 14 15  1  0
 15 16  1  0
 16 17  1  0
 17 18  1  0
 12 19  2  0
 19 20  1  0
 20 21  1  0
 21 22  2  0
 22 23  1  0
 23 24  2  0
 24 25  1  0
 25 26  2  0
  8  2  1  0
 20 10  1  0
 26 21  1  0
 18 13  1  0
M  END
>  <cnnaffinity>  (56) 
-6.58175

>  <filename>  (56) 
Cc1cccc(C)c1Cc1nc(C2CCOCC2)nn1-c1cccnc1

>  <enamine_id>  (56) 
PV-006771860117

$$$$

     RDKit          3D

 25 28  0  0  0  0  0  0  0  0999 V2000
    9.3979    2.6208   22.1473 F   0  0  0  0  0  0  0  0  0  0  0  0
   10.4958    1.8776   22.3704 C   0  0  0  0  0  0  0  0  0  0  0  0
   11.4054    2.2812   23.3486 C   0  0  0  0  0  0  0  0  0  0  0  0
   12.5029    1.5739   23.6445 N   0  0  0  0  0  0  0  0  0  0  0  0
   12.7060    0.4379   22.9712 C   0  0  0  0  0  0  0  0  0  0  0  0
   11.8367   -0.0223   21.9750 C   0  0  0  0  0  0  0  0  0  0  0  0
   12.1669   -1.5426   21.2179 Cl  0  0  0  0  0  0  0  0  0  0  0  0
   10.6956    0.7109   21.6300 C   0  0  0  0  0  0  0  0  0  0  0  0
    9.6467    0.2219   20.6652 C   0  0  0  0  0  0  0  0  0  0  0  0
    8.6265   -0.6316   21.3330 C   0  0  0  0  0  0  0  0  0  0  0  0
    8.8451   -1.4703   22.3232 N   0  0  0  0  0  0  0  0  0  0  0  0
    7.6211   -1.9933   22.5582 C   0  0  0  0  0  0  0  0  0  0  0  0
    7.3792   -2.9954   23.6403 C   0  0  1  0  0  0  0  0  0  0  0  0
    8.2572   -4.2632   23.4906 C   0  0  0  0  0  0  0  0  0  0  0  0
    9.4939   -3.9614   24.3572 C   0  0  0  0  0  0  0  0  0  0  0  0
    9.1568   -2.8687   25.1896 O   0  0  0  0  0  0  0  0  0  0  0  0
    7.8141   -2.4728   25.0227 C   0  0  0  0  0  0  0  0  0  0  0  0
    6.6661   -1.5580   21.7608 N   0  0  0  0  0  0  0  0  0  0  0  0
    7.3221   -0.6986   20.9344 N   0  0  0  0  0  0  0  0  0  0  0  0
    6.6468    0.0003   19.9005 C   0  0  0  0  0  0  0  0  0  0  0  0
    5.4357    0.6470   20.1645 C   0  0  0  0  0  0  0  0  0  0  0  0
    4.8112    1.3129   19.1090 C   0  0  0  0  0  0  0  0  0  0  0  0
    5.3997    1.2957   17.8377 C   0  0  0  0  0  0  0  0  0  0  0  0
    6.5586    0.6720   17.5786 N   0  0  0  0  0  0  0  0  0  0  0  0
    7.1656    0.0496   18.5935 C   0  0  0  0  0  0  0  0  0  0  0  0
  1  2  1  0
  2  3  2  0
  3  4  1  0
  4  5  2  0
  5  6  1  0
  6  7  1  0
  6  8  2  0
  8  9  1  0
  9 10  1  0
 10 11  2  0
 11 12  1  0
 13 12  1  6
 13 14  1  0
 14 15  1  0
 15 16  1  0
 16 17  1  0
 12 18  2  0
 18 19  1  0
 19 20  1  0
 20 21  2  0
 21 22  1  0
 22 23  2  0
 23 24  1  0
 24 25  2  0
  8  2  1  0
 19 10  1  0
 25 20  1  0
 17 13  1  0
M  END
>  <cnnaffinity>  (57) 
-6.5777

>  <filename>  (57) 
Fc1cncc(Cl)c1Cc1nc(C2CCOC2)nn1-c1cccnc1

>  <enamine_id>  (57) 
PV-006969973856

$$$$

     RDKit          3D

 25 27  0  0  0  0  0  0  0  0999 V2000
    7.8471   -6.0554   22.8302 C   0  0  0  0  0  0  0  0  0  0  0  0
    8.1167   -5.2483   24.0928 C   0  0  0  0  0  0  0  0  0  0  0  0
    8.4835   -3.9211   23.7630 O   0  0  0  0  0  0  0  0  0  0  0  0
    7.4089   -2.9966   23.6318 C   0  0  1  0  0  0  0  0  0  0  0  0
    7.2225   -2.2633   24.9696 C   0  0  0  0  0  0  0  0  0  0  0  0
    7.6686   -2.0329   22.5018 C   0  0  0  0  0  0  0  0  0  0  0  0
    6.6945   -1.6101   21.7131 N   0  0  0  0  0  0  0  0  0  0  0  0
    7.3136   -0.6923   20.9260 N   0  0  0  0  0  0  0  0  0  0  0  0
    6.6363    0.0002   19.8929 C   0  0  0  0  0  0  0  0  0  0  0  0
    5.4292    0.6469   20.1628 C   0  0  0  0  0  0  0  0  0  0  0  0
    4.8098    1.3156   19.1064 C   0  0  0  0  0  0  0  0  0  0  0  0
    5.3970    1.2978   17.8349 C   0  0  0  0  0  0  0  0  0  0  0  0
    6.5539    0.6707   17.5701 N   0  0  0  0  0  0  0  0  0  0  0  0
    7.1592    0.0483   18.5860 C   0  0  0  0  0  0  0  0  0  0  0  0
    8.6024   -0.5660   21.3433 C   0  0  0  0  0  0  0  0  0  0  0  0
    9.6236    0.3431   20.7744 C   0  0  0  0  0  0  0  0  0  0  0  0
   10.3115    1.1394   21.8517 C   0  0  0  0  0  0  0  0  0  0  0  0
    9.6971    2.2271   22.4840 C   0  0  0  0  0  0  0  0  0  0  0  0
    8.1323    2.7619   21.9719 Cl  0  0  0  0  0  0  0  0  0  0  0  0
   10.3264    2.8777   23.5515 C   0  0  0  0  0  0  0  0  0  0  0  0
   11.5164    2.5001   24.0313 N   0  0  0  0  0  0  0  0  0  0  0  0
   12.1072    1.4469   23.4568 C   0  0  0  0  0  0  0  0  0  0  0  0
   11.5386    0.7547   22.3864 C   0  0  0  0  0  0  0  0  0  0  0  0
   12.1786   -0.3075   21.8752 F   0  0  0  0  0  0  0  0  0  0  0  0
    8.8585   -1.4217   22.3066 N   0  0  0  0  0  0  0  0  0  0  0  0
  1  2  1  0
  2  3  1  0
  3  4  1  0
  4  5  1  1
  4  6  1  0
  6  7  2  0
  7  8  1  0
  8  9  1  0
  9 10  2  0
 10 11  1  0
 11 12  2  0
 12 13  1  0
 13 14  2  0
  8 15  1  0
 15 16  1  0
 16 17  1  0
 17 18  2  0
 18 19  1  0
 18 20  1  0
 20 21  2  0
 21 22  1  0
 22 23  2  0
 23 24  1  0
 15 25  2  0
 25  6  1  0
 14  9  1  0
 23 17  1  0
M  END
>  <cnnaffinity>  (58) 
-6.5755

>  <filename>  (58) 
CCOC(C)c1nc(Cc2c(F)cncc2Cl)n(-c2cccnc2)n1

>  <enamine_id>  (58) 
PV-007124366270

$$$$

     RDKit          3D

 23 26  0  0  0  0  0  0  0  0999 V2000
    6.0657   -4.9617   25.2808 C   0  0  0  0  0  0  0  0  0  0  0  0
    6.4858   -5.3415   24.0715 C   0  0  0  0  0  0  0  0  0  0  0  0
    6.9982   -4.3818   23.0311 C   0  0  0  0  0  0  0  0  0  0  0  0
    7.3887   -3.0076   23.6275 C   0  0  1  0  0  0  0  0  0  0  0  0
    7.6372   -2.0080   22.5438 C   0  0  0  0  0  0  0  0  0  0  0  0
    6.6781   -1.5607   21.7484 N   0  0  0  0  0  0  0  0  0  0  0  0
    7.3342   -0.6979   20.9323 N   0  0  0  0  0  0  0  0  0  0  0  0
    6.6498   -0.0018   19.9013 C   0  0  0  0  0  0  0  0  0  0  0  0
    5.4371    0.6428   20.1686 C   0  0  0  0  0  0  0  0  0  0  0  0
    4.8128    1.3102   19.1109 C   0  0  0  0  0  0  0  0  0  0  0  0
    5.4020    1.2943   17.8393 C   0  0  0  0  0  0  0  0  0  0  0  0
    6.5621    0.6726   17.5785 N   0  0  0  0  0  0  0  0  0  0  0  0
    7.1672    0.0514   18.5952 C   0  0  0  0  0  0  0  0  0  0  0  0
    8.6353   -0.6354   21.3265 C   0  0  0  0  0  0  0  0  0  0  0  0
    9.6696    0.2266   20.6790 C   0  0  0  0  0  0  0  0  0  0  0  0
   10.7108    0.7310   21.6377 C   0  0  0  0  0  0  0  0  0  0  0  0
   11.8788    0.1454   22.0048 C   0  0  0  0  0  0  0  0  0  0  0  0
   12.5748    0.7242   23.0396 N   0  0  0  0  0  0  0  0  0  0  0  0
   11.9116    1.7532   23.4655 C   0  0  0  0  0  0  0  0  0  0  0  0
   10.4238    2.0860   22.6592 S   0  0  0  0  0  0  0  0  0  0  0  0
    8.8618   -1.4957   22.2982 N   0  0  0  0  0  0  0  0  0  0  0  0
    6.3120   -2.5243   24.6208 C   0  0  0  0  0  0  0  0  0  0  0  0
    6.1232   -3.5310   25.7624 C   0  0  0  0  0  0  0  0  0  0  0  0
  1  2  2  0
  2  3  1  0
  3  4  1  0
  4  5  1  6
  5  6  2  0
  6  7  1  0
  7  8  1  0
  8  9  2  0
  9 10  1  0
 10 11  2  0
 11 12  1  0
 12 13  2  0
  7 14  1  0
 14 15  1  0
 15 16  1  0
 16 17  2  0
 17 18  1  0
 18 19  2  0
 19 20  1  0
 14 21  2  0
  4 22  1  0
 22 23  1  0
 23  1  1  0
 21  5  1  0
 13  8  1  0
 20 16  1  0
M  END
>  <cnnaffinity>  (59) 
-6.57076

>  <filename>  (59) 
C1=CCC(c2nc(Cc3cncs3)n(-c3cccnc3)n2)CC1

>  <enamine_id>  (59) 
PV-006954114221

$$$$

     RDKit          3D

 24 27  0  0  0  0  0  0  0  0999 V2000
   12.3944   -1.3367   21.4123 C   0  0  0  0  0  0  0  0  0  0  0  0
   11.9088   -0.0153   21.9421 C   0  0  0  0  0  0  0  0  0  0  0  0
   10.7537    0.6168   21.6026 C   0  0  0  0  0  0  0  0  0  0  0  0
    9.6475    0.2328   20.6883 C   0  0  0  0  0  0  0  0  0  0  0  0
    8.6127   -0.5869   21.3677 C   0  0  0  0  0  0  0  0  0  0  0  0
    8.8495   -1.4466   22.3325 N   0  0  0  0  0  0  0  0  0  0  0  0
    7.6266   -2.0012   22.5558 C   0  0  0  0  0  0  0  0  0  0  0  0
    7.3899   -2.9713   23.6668 C   0  0  2  0  0  0  0  0  0  0  0  0
    7.5476   -2.2774   25.0551 C   0  0  0  0  0  0  0  0  0  0  0  0
    7.5432   -3.2732   26.1919 C   0  0  0  0  0  0  0  0  0  0  0  0
    7.7717   -4.5794   26.0271 C   0  0  0  0  0  0  0  0  0  0  0  0
    7.9890   -5.2244   24.6752 C   0  0  0  0  0  0  0  0  0  0  0  0
    8.3359   -4.1966   23.5815 C   0  0  0  0  0  0  0  0  0  0  0  0
    6.6719   -1.5715   21.7549 N   0  0  0  0  0  0  0  0  0  0  0  0
    7.3168   -0.6784   20.9605 N   0  0  0  0  0  0  0  0  0  0  0  0
    6.6429   -0.0076   19.9013 C   0  0  0  0  0  0  0  0  0  0  0  0
    5.4315    0.6411   20.1542 C   0  0  0  0  0  0  0  0  0  0  0  0
    4.8030    1.3135   19.1035 C   0  0  0  0  0  0  0  0  0  0  0  0
    5.3967    1.2954   17.8353 C   0  0  0  0  0  0  0  0  0  0  0  0
    6.5517    0.6627   17.5789 N   0  0  0  0  0  0  0  0  0  0  0  0
    7.1586    0.0348   18.5922 C   0  0  0  0  0  0  0  0  0  0  0  0
   10.5933    1.7490   22.3272 O   0  0  0  0  0  0  0  0  0  0  0  0
   11.6687    1.8538   23.1507 C   0  0  0  0  0  0  0  0  0  0  0  0
   12.5079    0.8066   22.9650 C   0  0  0  0  0  0  0  0  0  0  0  0
  1  2  1  0
  2  3  2  0
  3  4  1  0
  4  5  1  0
  5  6  2  0
  6  7  1  0
  8  7  1  6
  8  9  1  0
  9 10  1  0
 10 11  2  0
 11 12  1  0
 12 13  1  0
  7 14  2  0
 14 15  1  0
 15 16  1  0
 16 17  2  0
 17 18  1  0
 18 19  2  0
 19 20  1  0
 20 21  2  0
  3 22  1  0
 22 23  1  0
 23 24  2  0
 24  2  1  0
 15  5  1  0
 21 16  1  0
 13  8  1  0
M  END
>  <cnnaffinity>  (60) 
-6.5706

>  <filename>  (60) 
Cc1ccoc1Cc1nc(C2CC=CCC2)nn1-c1cccnc1

>  <enamine_id>  (60) 
PV-006941471891

$$$$

     RDKit          3D

 26 29  0  0  0  0  0  0  0  0999 V2000
   12.1840   -0.3453   21.8412 F   0  0  0  0  0  0  0  0  0  0  0  0
   11.5587    0.7202   22.3653 C   0  0  0  0  0  0  0  0  0  0  0  0
   12.1440    1.4008   23.4337 C   0  0  0  0  0  0  0  0  0  0  0  0
   11.5667    2.4548   24.0206 N   0  0  0  0  0  0  0  0  0  0  0  0
   10.3753    2.8455   23.5547 C   0  0  0  0  0  0  0  0  0  0  0  0
    9.7304    2.2077   22.4892 C   0  0  0  0  0  0  0  0  0  0  0  0
    8.1652    2.7591   21.9962 Cl  0  0  0  0  0  0  0  0  0  0  0  0
   10.3290    1.1168   21.8457 C   0  0  0  0  0  0  0  0  0  0  0  0
    9.6225    0.3258   20.7758 C   0  0  0  0  0  0  0  0  0  0  0  0
    8.6046   -0.5876   21.3508 C   0  0  0  0  0  0  0  0  0  0  0  0
    8.8425   -1.4460   22.3182 N   0  0  0  0  0  0  0  0  0  0  0  0
    7.6301   -2.0253   22.5166 C   0  0  0  0  0  0  0  0  0  0  0  0
    7.4115   -3.0345   23.6037 C   0  0  0  0  0  0  0  0  0  0  0  0
    7.5957   -2.4112   25.0132 C   0  0  0  0  0  0  0  0  0  0  0  0
    7.4872   -3.4893   26.0922 C   0  0  0  0  0  0  0  0  0  0  0  0
    8.4058   -4.5457   25.8714 O   0  0  0  0  0  0  0  0  0  0  0  0
    8.1718   -5.2107   24.6420 C   0  0  0  0  0  0  0  0  0  0  0  0
    8.3361   -4.2681   23.4487 C   0  0  0  0  0  0  0  0  0  0  0  0
    6.6767   -1.6014   21.7134 N   0  0  0  0  0  0  0  0  0  0  0  0
    7.3167   -0.6957   20.9275 N   0  0  0  0  0  0  0  0  0  0  0  0
    6.6419    0.0009   19.8949 C   0  0  0  0  0  0  0  0  0  0  0  0
    5.4319    0.6466   20.1628 C   0  0  0  0  0  0  0  0  0  0  0  0
    4.8104    1.3150   19.1077 C   0  0  0  0  0  0  0  0  0  0  0  0
    5.3977    1.2969   17.8364 C   0  0  0  0  0  0  0  0  0  0  0  0
    6.5545    0.6703   17.5735 N   0  0  0  0  0  0  0  0  0  0  0  0
    7.1622    0.0482   18.5876 C   0  0  0  0  0  0  0  0  0  0  0  0
  1  2  1  0
  2  3  2  0
  3  4  1  0
  4  5  2  0
  5  6  1  0
  6  7  1  0
  6  8  2  0
  8  9  1  0
  9 10  1  0
 10 11  2  0
 11 12  1  0
 12 13  1  0
 13 14  1  0
 14 15  1  0
 15 16  1  0
 16 17  1  0
 17 18  1  0
 12 19  2  0
 19 20  1  0
 20 21  1  0
 21 22  2  0
 22 23  1  0
 23 24  2  0
 24 25  1  0
 25 26  2  0
  8  2  1  0
 20 10  1  0
 26 21  1  0
 18 13  1  0
M  END
>  <cnnaffinity>  (61) 
-6.57044

>  <filename>  (61) 
Fc1cncc(Cl)c1Cc1nc(C2CCOCC2)nn1-c1cccnc1

>  <enamine_id>  (61) 
PV-006879701147

$$$$

     RDKit          3D

 28 31  0  0  0  0  0  0  0  0999 V2000
    9.5267    1.3141   26.1482 C   0  0  0  0  0  0  0  0  0  0  0  0
    9.0480    1.7020   24.7930 C   0  0  0  0  0  0  0  0  0  0  0  0
    9.7069    1.8824   23.6008 C   0  0  0  0  0  0  0  0  0  0  0  0
    8.6862    2.0616   22.6427 C   0  0  0  0  0  0  0  0  0  0  0  0
    8.8829    1.9723   21.1554 C   0  0  0  0  0  0  0  0  0  0  0  0
    9.4298    0.5703   20.7418 C   0  0  0  0  0  0  0  0  0  0  0  0
    8.5923   -0.5661   21.2550 C   0  0  0  0  0  0  0  0  0  0  0  0
    8.8686   -1.3581   22.2740 N   0  0  0  0  0  0  0  0  0  0  0  0
    7.6688   -1.9525   22.5388 C   0  0  0  0  0  0  0  0  0  0  0  0
    7.4221   -2.8253   23.7439 C   0  0  0  0  0  0  0  0  0  0  0  0
    7.1761   -1.9657   25.0226 C   0  0  0  0  0  0  0  0  0  0  0  0
    6.9105   -2.8314   26.2679 C   0  0  0  0  0  0  0  0  0  0  0  0
    8.0047   -3.8695   26.4818 C   0  0  0  0  0  0  0  0  0  0  0  0
    7.6517   -4.6879   27.5245 F   0  0  0  0  0  0  0  0  0  0  0  0
    9.1630   -3.2287   26.8677 F   0  0  0  0  0  0  0  0  0  0  0  0
    8.2913   -4.7128   25.2443 C   0  0  0  0  0  0  0  0  0  0  0  0
    8.5591   -3.8488   23.9934 C   0  0  0  0  0  0  0  0  0  0  0  0
    6.6943   -1.6115   21.7160 N   0  0  0  0  0  0  0  0  0  0  0  0
    7.2971   -0.7423   20.8634 N   0  0  0  0  0  0  0  0  0  0  0  0
    6.5802   -0.0919   19.8166 C   0  0  0  0  0  0  0  0  0  0  0  0
    5.3774    0.5783   20.0749 C   0  0  0  0  0  0  0  0  0  0  0  0
    4.7935    1.3114   19.0354 C   0  0  0  0  0  0  0  0  0  0  0  0
    5.4097    1.3228   17.7776 C   0  0  0  0  0  0  0  0  0  0  0  0
    6.5269    0.6299   17.5065 N   0  0  0  0  0  0  0  0  0  0  0  0
    7.0869   -0.0613   18.5053 C   0  0  0  0  0  0  0  0  0  0  0  0
    7.4887    2.0524   23.2132 N   0  0  0  0  0  0  0  0  0  0  0  0
    7.7263    1.8273   24.5195 N   0  0  0  0  0  0  0  0  0  0  0  0
    6.6310    1.6857   25.4551 C   0  0  0  0  0  0  0  0  0  0  0  0
  1  2  1  0
  2  3  2  0
  3  4  1  0
  4  5  1  0
  5  6  1  0
  6  7  1  0
  7  8  2  0
  8  9  1  0
  9 10  1  0
 10 11  1  0
 11 12  1  0
 12 13  1  0
 13 14  1  0
 13 15  1  0
 13 16  1  0
 16 17  1  0
  9 18  2  0
 18 19  1  0
 19 20  1  0
 20 21  2  0
 21 22  1  0
 22 23  2  0
 23 24  1  0
 24 25  2  0
  4 26  2  0
 26 27  1  0
 27 28  1  0
 27  2  1  0
 19  7  1  0
 25 20  1  0
 17 10  1  0
M  END
>  <cnnaffinity>  (62) 
-6.56754

>  <filename>  (62) 
Cc1cc(CCc2nc(C3CCC(F)(F)CC3)nn2-c2cccnc2)nn1C

>  <enamine_id>  (62) 
PV-006849268639

$$$$

     RDKit          3D

 24 27  0  0  0  0  0  0  0  0999 V2000
   12.3846   -1.3248   21.6091 C   0  0  0  0  0  0  0  0  0  0  0  0
   11.9134    0.0228   22.0366 C   0  0  0  0  0  0  0  0  0  0  0  0
   12.5778    0.7044   22.9340 N   0  0  0  0  0  0  0  0  0  0  0  0
   11.8392    1.8433   23.1720 O   0  0  0  0  0  0  0  0  0  0  0  0
   10.7490    1.8213   22.3989 C   0  0  0  0  0  0  0  0  0  0  0  0
   10.7198    0.7061   21.6243 C   0  0  0  0  0  0  0  0  0  0  0  0
    9.6431    0.1957   20.6858 C   0  0  0  0  0  0  0  0  0  0  0  0
    8.5762   -0.6416   21.3328 C   0  0  0  0  0  0  0  0  0  0  0  0
    8.7711   -1.4630   22.3458 N   0  0  0  0  0  0  0  0  0  0  0  0
    7.5513   -2.0191   22.5414 C   0  0  0  0  0  0  0  0  0  0  0  0
    7.3149   -3.0340   23.6209 C   0  0  2  0  0  0  0  0  0  0  0  0
    6.9785   -4.4299   23.0266 C   0  0  0  0  0  0  0  0  0  0  0  0
    6.4414   -5.3894   24.0599 C   0  0  0  0  0  0  0  0  0  0  0  0
    6.0917   -5.0375   25.2993 C   0  0  0  0  0  0  0  0  0  0  0  0
    6.1070   -3.6088   25.7944 C   0  0  0  0  0  0  0  0  0  0  0  0
    6.2388   -2.5919   24.6442 C   0  0  0  0  0  0  0  0  0  0  0  0
    6.6186   -1.6153   21.6966 N   0  0  0  0  0  0  0  0  0  0  0  0
    7.2883   -0.7536   20.8881 N   0  0  0  0  0  0  0  0  0  0  0  0
    6.5947   -0.0699   19.8510 C   0  0  0  0  0  0  0  0  0  0  0  0
    5.3958    0.5969   20.1224 C   0  0  0  0  0  0  0  0  0  0  0  0
    4.7943    1.3090   19.0807 C   0  0  0  0  0  0  0  0  0  0  0  0
    5.3882    1.3139   17.8107 C   0  0  0  0  0  0  0  0  0  0  0  0
    6.5156    0.6412   17.5344 N   0  0  0  0  0  0  0  0  0  0  0  0
    7.0940   -0.0311   18.5364 C   0  0  0  0  0  0  0  0  0  0  0  0
  1  2  1  0
  2  3  2  0
  3  4  1  0
  4  5  1  0
  5  6  2  0
  6  7  1  0
  7  8  1  0
  8  9  2  0
  9 10  1  0
 11 10  1  6
 11 12  1  0
 12 13  1  0
 13 14  2  0
 14 15  1  0
 15 16  1  0
 10 17  2  0
 17 18  1  0
 18 19  1  0
 19 20  2  0
 20 21  1  0
 21 22  2  0
 22 23  1  0
 23 24  2  0
  6  2  1  0
 18  8  1  0
 24 19  1  0
 16 11  1  0
M  END
>  <cnnaffinity>  (63) 
-6.56463

>  <filename>  (63) 
Cc1nocc1Cc1nc(C2CC=CCC2)nn1-c1cccnc1

>  <enamine_id>  (63) 
PV-006768218114

$$$$

     RDKit          3D

 24 27  0  0  0  0  0  0  0  0999 V2000
   13.6393    0.3267   23.3537 C   0  0  0  0  0  0  0  0  0  0  0  0
   12.3320    0.5954   22.6517 C   0  0  0  0  0  0  0  0  0  0  0  0
   11.7859   -0.1119   21.6776 N   0  0  0  0  0  0  0  0  0  0  0  0
   10.6119    0.5193   21.3781 N   0  0  0  0  0  0  0  0  0  0  0  0
    9.5788    0.0238   20.4714 C   0  0  0  0  0  0  0  0  0  0  0  0
    8.5711   -0.7488   21.2426 C   0  0  0  0  0  0  0  0  0  0  0  0
    8.8203   -1.4975   22.2747 N   0  0  0  0  0  0  0  0  0  0  0  0
    7.5656   -1.9844   22.5938 C   0  0  0  0  0  0  0  0  0  0  0  0
    7.3742   -2.9681   23.7150 C   0  0  0  0  0  0  0  0  0  0  0  0
    6.4339   -2.4396   24.7940 C   0  0  0  0  0  0  0  0  0  0  0  0
    5.7936   -3.6731   25.4178 C   0  0  0  0  0  0  0  0  0  0  0  0
    6.0143   -4.8374   24.4474 C   0  0  0  0  0  0  0  0  0  0  0  0
    6.7387   -4.2719   23.2330 C   0  0  0  0  0  0  0  0  0  0  0  0
    6.5886   -1.5521   21.8300 N   0  0  0  0  0  0  0  0  0  0  0  0
    7.2207   -0.7616   20.9442 N   0  0  0  0  0  0  0  0  0  0  0  0
    6.5908   -0.0559   19.9145 C   0  0  0  0  0  0  0  0  0  0  0  0
    5.3772    0.5963   20.1342 C   0  0  0  0  0  0  0  0  0  0  0  0
    4.8134    1.2895   19.0638 C   0  0  0  0  0  0  0  0  0  0  0  0
    5.4622    1.3160   17.8227 C   0  0  0  0  0  0  0  0  0  0  0  0
    6.6353    0.6958   17.6134 N   0  0  0  0  0  0  0  0  0  0  0  0
    7.1835    0.0271   18.6441 C   0  0  0  0  0  0  0  0  0  0  0  0
   10.3916    1.6045   22.1984 C   0  0  0  0  0  0  0  0  0  0  0  0
   11.4666    1.6950   23.0123 C   0  0  0  0  0  0  0  0  0  0  0  0
   11.7572    3.0318   24.3340 Br  0  0  0  0  0  0  0  0  0  0  0  0
  1  2  1  0
  2  3  2  0
  3  4  1  0
  4  5  1  0
  5  6  1  0
  6  7  2  0
  7  8  1  0
  8  9  1  0
  9 10  1  0
 10 11  1  0
 11 12  1  0
 12 13  1  0
  8 14  2  0
 14 15  1  0
 15 16  1  0
 16 17  2  0
 17 18  1  0
 18 19  2  0
 19 20  1  0
 20 21  2  0
  4 22  1  0
 22 23  2  0
 23 24  1  0
 23  2  1  0
 15  6  1  0
 21 16  1  0
 13  9  1  0
M  END
>  <cnnaffinity>  (64) 
-6.56303

>  <filename>  (64) 
Cc1nn(Cc2nc(C3CCCC3)nn2-c2cccnc2)cc1Br

>  <enamine_id>  (64) 
PV-007020902882

$$$$

     RDKit          3D

 23 26  0  0  0  0  0  0  0  0999 V2000
   12.2558    2.2452   24.2242 C   0  0  0  0  0  0  0  0  0  0  0  0
   11.8714    1.5016   22.9968 C   0  0  0  0  0  0  0  0  0  0  0  0
   12.4989    0.4532   22.5533 N   0  0  0  0  0  0  0  0  0  0  0  0
   11.7734   -0.1271   21.5394 C   0  0  0  0  0  0  0  0  0  0  0  0
   10.5995    0.4653   21.2092 C   0  0  0  0  0  0  0  0  0  0  0  0
    9.4777   -0.0580   20.3662 C   0  0  0  0  0  0  0  0  0  0  0  0
    8.4521   -0.8279   21.1479 C   0  0  0  0  0  0  0  0  0  0  0  0
    8.6848   -1.6342   22.1659 N   0  0  0  0  0  0  0  0  0  0  0  0
    7.4530   -2.1013   22.4870 C   0  0  0  0  0  0  0  0  0  0  0  0
    7.2355   -3.0621   23.6272 C   0  0  0  0  0  0  0  0  0  0  0  0
    6.3119   -2.5657   24.7708 C   0  0  0  0  0  0  0  0  0  0  0  0
    5.7599   -3.8411   25.4486 C   0  0  0  0  0  0  0  0  0  0  0  0
    5.9863   -5.0119   24.4574 C   0  0  0  0  0  0  0  0  0  0  0  0
    6.5998   -4.4005   23.1845 C   0  0  0  0  0  0  0  0  0  0  0  0
    6.4793   -1.6595   21.7023 N   0  0  0  0  0  0  0  0  0  0  0  0
    7.1299   -0.8596   20.8207 N   0  0  0  0  0  0  0  0  0  0  0  0
    6.4450   -0.1593   19.7902 C   0  0  0  0  0  0  0  0  0  0  0  0
    5.2779    0.5620   20.0643 C   0  0  0  0  0  0  0  0  0  0  0  0
    4.7255    1.3364   19.0391 C   0  0  0  0  0  0  0  0  0  0  0  0
    5.3398    1.3402   17.7799 C   0  0  0  0  0  0  0  0  0  0  0  0
    6.4291    0.6110   17.4967 N   0  0  0  0  0  0  0  0  0  0  0  0
    6.9560   -0.1259   18.4777 C   0  0  0  0  0  0  0  0  0  0  0  0
   10.4207    1.9094   22.1332 S   0  0  0  0  0  0  0  0  0  0  0  0
  1  2  1  0
  2  3  2  0
  3  4  1  0
  4  5  2  0
  5  6  1  0
  6  7  1  0
  7  8  2  0
  8  9  1  0
  9 10  1  0
 10 11  1  0
 11 12  1  0
 12 13  1  0
 13 14  1  0
  9 15  2  0
 15 16  1  0
 16 17  1  0
 17 18  2  0
 18 19  1  0
 19 20  2  0
 20 21  1  0
 21 22  2  0
  5 23  1  0
 23  2  1  0
 16  7  1  0
 22 17  1  0
 14 10  1  0
M  END
>  <cnnaffinity>  (65) 
-6.558

>  <filename>  (65) 
Cc1ncc(Cc2nc(C3CCCC3)nn2-c2cccnc2)s1

>  <enamine_id>  (65) 
PV-007096412733

$$$$

     RDKit          3D

 28 31  0  0  0  0  0  0  0  0999 V2000
    8.6848    1.6290   27.0608 F   0  0  0  0  0  0  0  0  0  0  0  0
    8.8317    1.7381   25.7350 C   0  0  0  0  0  0  0  0  0  0  0  0
   10.0455    1.9393   25.0930 C   0  0  0  0  0  0  0  0  0  0  0  0
   10.1133    2.0688   23.7668 N   0  0  0  0  0  0  0  0  0  0  0  0
    8.9674    1.9856   23.0782 C   0  0  0  0  0  0  0  0  0  0  0  0
    9.0604    1.9990   21.5755 C   0  0  0  0  0  0  0  0  0  0  0  0
    9.5106    0.6254   20.9808 C   0  0  0  0  0  0  0  0  0  0  0  0
    8.6292   -0.5145   21.3943 C   0  0  0  0  0  0  0  0  0  0  0  0
    8.8525   -1.3271   22.4081 N   0  0  0  0  0  0  0  0  0  0  0  0
    7.6505   -1.9409   22.5838 C   0  0  0  0  0  0  0  0  0  0  0  0
    7.4102   -2.8638   23.7365 C   0  0  0  0  0  0  0  0  0  0  0  0
    7.3643   -2.0839   25.0731 C   0  0  0  0  0  0  0  0  0  0  0  0
    6.9767   -3.0011   26.2544 C   0  0  0  0  0  0  0  0  0  0  0  0
    7.4252   -4.4551   26.0691 C   0  0  0  0  0  0  0  0  0  0  0  0
    6.4012   -5.1749   25.4987 F   0  0  0  0  0  0  0  0  0  0  0  0
    7.6459   -5.0334   27.2905 F   0  0  0  0  0  0  0  0  0  0  0  0
    8.6616   -4.6010   25.1980 C   0  0  0  0  0  0  0  0  0  0  0  0
    8.4553   -4.0172   23.7802 C   0  0  0  0  0  0  0  0  0  0  0  0
    6.7196   -1.5906   21.7212 N   0  0  0  0  0  0  0  0  0  0  0  0
    7.3572   -0.6857   20.9293 N   0  0  0  0  0  0  0  0  0  0  0  0
    6.6530   -0.0025   19.8959 C   0  0  0  0  0  0  0  0  0  0  0  0
    5.4385    0.6408   20.1645 C   0  0  0  0  0  0  0  0  0  0  0  0
    4.8127    1.3103   19.1075 C   0  0  0  0  0  0  0  0  0  0  0  0
    5.3999    1.2968   17.8357 C   0  0  0  0  0  0  0  0  0  0  0  0
    6.5573    0.6714   17.5726 N   0  0  0  0  0  0  0  0  0  0  0  0
    7.1642    0.0478   18.5881 C   0  0  0  0  0  0  0  0  0  0  0  0
    7.7566    1.7965   23.6155 N   0  0  0  0  0  0  0  0  0  0  0  0
    7.7086    1.6627   24.9381 C   0  0  0  0  0  0  0  0  0  0  0  0
  1  2  1  0
  2  3  2  0
  3  4  1  0
  4  5  2  0
  5  6  1  0
  6  7  1  0
  7  8  1  0
  8  9  2  0
  9 10  1  0
 10 11  1  0
 11 12  1  0
 12 13  1  0
 13 14  1  0
 14 15  1  0
 14 16  1  0
 14 17  1  0
 17 18  1  0
 10 19  2  0
 19 20  1  0
 20 21  1  0
 21 22  2  0
 22 23  1  0
 23 24  2  0
 24 25  1  0
 25 26  2  0
  5 27  1  0
 27 28  2  0
 28  2  1  0
 20  8  1  0
 26 21  1  0
 18 11  1  0
M  END
>  <cnnaffinity>  (66) 
-6.55236

>  <filename>  (66) 
Fc1cnc(CCc2nc(C3CCC(F)(F)CC3)nn2-c2cccnc2)nc1

>  <enamine_id>  (66) 
PV-006926382088

$$$$

     RDKit          3D

 26 29  0  0  0  0  0  0  0  0999 V2000
    7.7944    2.9106   21.8271 C   0  0  0  0  0  0  0  0  0  0  0  0
    9.1038    2.5242   22.4361 C   0  0  0  0  0  0  0  0  0  0  0  0
    9.6026    3.0939   23.5270 N   0  0  0  0  0  0  0  0  0  0  0  0
   10.7244    2.3904   23.7833 N   0  0  0  0  0  0  0  0  0  0  0  0
   10.9508    1.3823   22.9052 C   0  0  0  0  0  0  0  0  0  0  0  0
   12.0317    0.3552   23.0197 C   0  0  0  0  0  0  0  0  0  0  0  0
    9.9258    1.4577   21.9889 C   0  0  0  0  0  0  0  0  0  0  0  0
    9.6173    0.4350   20.9177 C   0  0  0  0  0  0  0  0  0  0  0  0
    8.6181   -0.5860   21.3624 C   0  0  0  0  0  0  0  0  0  0  0  0
    8.8497   -1.4601   22.3206 N   0  0  0  0  0  0  0  0  0  0  0  0
    7.6382   -2.0542   22.4973 C   0  0  0  0  0  0  0  0  0  0  0  0
    7.4116   -3.0603   23.5805 C   0  0  1  0  0  0  0  0  0  0  0  0
    8.4055   -4.2430   23.4657 C   0  0  0  0  0  0  0  0  0  0  0  0
    8.1759   -5.2694   24.5853 C   0  0  0  0  0  0  0  0  0  0  0  0
    8.2529   -4.6372   25.9892 C   0  0  2  0  0  0  0  0  0  0  0  0
    7.9992   -5.6761   27.0883 C   0  0  0  0  0  0  0  0  0  0  0  0
    7.2783   -3.4483   26.0977 C   0  0  0  0  0  0  0  0  0  0  0  0
    7.4963   -2.4060   24.9888 C   0  0  0  0  0  0  0  0  0  0  0  0
    6.6906   -1.6300   21.6884 N   0  0  0  0  0  0  0  0  0  0  0  0
    7.3311   -0.7009   20.9276 N   0  0  0  0  0  0  0  0  0  0  0  0
    6.6437   -0.0153   19.8872 C   0  0  0  0  0  0  0  0  0  0  0  0
    5.4340    0.6333   20.1519 C   0  0  0  0  0  0  0  0  0  0  0  0
    4.8046    1.3129   19.1019 C   0  0  0  0  0  0  0  0  0  0  0  0
    5.3950    1.3008   17.8324 C   0  0  0  0  0  0  0  0  0  0  0  0
    6.5446    0.6620   17.5658 N   0  0  0  0  0  0  0  0  0  0  0  0
    7.1530    0.0322   18.5786 C   0  0  0  0  0  0  0  0  0  0  0  0
  1  2  1  0
  2  3  2  0
  3  4  1  0
  4  5  1  0
  5  6  1  0
  5  7  2  0
  7  8  1  0
  8  9  1  0
  9 10  2  0
 10 11  1  0
 12 11  1  6
 12 13  1  0
 13 14  1  0
 14 15  1  0
 15 16  1  1
 15 17  1  0
 17 18  1  0
 11 19  2  0
 19 20  1  0
 20 21  1  0
 21 22  2  0
 22 23  1  0
 23 24  2  0
 24 25  1  0
 25 26  2  0
  7  2  1  0
 20  9  1  0
 26 21  1  0
 18 12  1  0
M  END
>  <cnnaffinity>  (67) 
-6.54804

>  <filename>  (67) 
Cc1n[nH]c(C)c1Cc1nc(C2CCC(C)CC2)nn1-c1cccnc1

>  <enamine_id>  (67) 
PV-007045458789

$$$$

     RDKit          3D

 26 29  0  0  0  0  0  0  0  0999 V2000
   10.6692    4.1153   23.5512 C   0  0  0  0  0  0  0  0  0  0  0  0
   10.8692    2.6571   23.8020 C   0  0  0  0  0  0  0  0  0  0  0  0
   11.4075    2.1504   24.8878 N   0  0  0  0  0  0  0  0  0  0  0  0
   11.3734    0.7857   24.7311 C   0  0  0  0  0  0  0  0  0  0  0  0
   10.8083    0.4861   23.5314 C   0  0  0  0  0  0  0  0  0  0  0  0
   10.5107    1.6806   22.9183 N   0  0  0  0  0  0  0  0  0  0  0  0
    9.9026    1.8035   21.6011 C   0  0  0  0  0  0  0  0  0  0  0  0
    8.4496    2.2994   21.6196 C   0  0  0  0  0  0  0  0  0  0  0  0
    7.5284    1.4823   22.5568 C   0  0  0  0  0  0  0  0  0  0  0  0
    7.4870    0.0170   22.2289 C   0  0  0  0  0  0  0  0  0  0  0  0
    7.9286   -0.9808   22.9774 N   0  0  0  0  0  0  0  0  0  0  0  0
    8.0399   -2.0169   22.0982 C   0  0  0  0  0  0  0  0  0  0  0  0
    8.7463   -3.3220   22.3810 C   0  0  1  0  0  0  0  0  0  0  0  0
   10.1222   -3.0301   23.0312 C   0  0  0  0  0  0  0  0  0  0  0  0
   10.0885   -2.9847   24.5307 C   0  0  0  0  0  0  0  0  0  0  0  0
    9.0147   -3.2610   25.2767 C   0  0  0  0  0  0  0  0  0  0  0  0
    7.7310   -3.7934   24.6763 C   0  0  0  0  0  0  0  0  0  0  0  0
    7.9473   -4.3260   23.2495 C   0  0  0  0  0  0  0  0  0  0  0  0
    7.6300   -1.7398   20.8768 N   0  0  0  0  0  0  0  0  0  0  0  0
    7.2227   -0.4469   20.9723 N   0  0  0  0  0  0  0  0  0  0  0  0
    6.5730    0.1680   19.8768 C   0  0  0  0  0  0  0  0  0  0  0  0
    5.3745    0.8647   20.0514 C   0  0  0  0  0  0  0  0  0  0  0  0
    4.7987    1.4526   18.9245 C   0  0  0  0  0  0  0  0  0  0  0  0
    5.4299    1.3146   17.6838 C   0  0  0  0  0  0  0  0  0  0  0  0
    6.5668    0.6163   17.5096 N   0  0  0  0  0  0  0  0  0  0  0  0
    7.1135    0.0403   18.5841 C   0  0  0  0  0  0  0  0  0  0  0  0
  1  2  1  0
  2  3  2  0
  3  4  1  0
  4  5  2  0
  5  6  1  0
  6  7  1  0
  7  8  1  0
  8  9  1  0
  9 10  1  0
 10 11  2  0
 11 12  1  0
 13 12  1  1
 13 14  1  0
 14 15  1  0
 15 16  2  0
 16 17  1  0
 17 18  1  0
 12 19  2  0
 19 20  1  0
 20 21  1  0
 21 22  2  0
 22 23  1  0
 23 24  2  0
 24 25  1  0
 25 26  2  0
  6  2  1  0
 20 10  1  0
 26 21  1  0
 18 13  1  0
M  END
>  <cnnaffinity>  (68) 
-6.54385

>  <filename>  (68) 
Cc1nccn1CCCc1nc(C2CC=CCC2)nn1-c1cccnc1

>  <enamine_id>  (68) 
PV-007018620691

$$$$

     RDKit          3D

 25 28  0  0  0  0  0  0  0  0999 V2000
   12.0570   -1.3584   21.4425 O   0  0  0  0  0  0  0  0  0  0  0  0
   11.8642   -0.1358   21.9613 C   0  0  0  0  0  0  0  0  0  0  0  0
   12.7914    0.2969   22.9077 C   0  0  0  0  0  0  0  0  0  0  0  0
   12.5877    1.5384   23.4873 C   0  0  0  0  0  0  0  0  0  0  0  0
   11.5481    2.3304   23.1828 N   0  0  0  0  0  0  0  0  0  0  0  0
   10.6803    1.8950   22.2617 C   0  0  0  0  0  0  0  0  0  0  0  0
   10.7766    0.6738   21.5885 C   0  0  0  0  0  0  0  0  0  0  0  0
    9.6646    0.2059   20.6654 C   0  0  0  0  0  0  0  0  0  0  0  0
    8.6286   -0.6399   21.3321 C   0  0  0  0  0  0  0  0  0  0  0  0
    8.8503   -1.4995   22.3018 N   0  0  0  0  0  0  0  0  0  0  0  0
    7.6169   -2.0000   22.5519 C   0  0  0  0  0  0  0  0  0  0  0  0
    7.3714   -2.9508   23.6753 C   0  0  1  0  0  0  0  0  0  0  0  0
    6.5496   -2.2799   24.8149 C   0  0  0  0  0  0  0  0  0  0  0  0
    6.0499   -3.2821   25.8274 C   0  0  0  0  0  0  0  0  0  0  0  0
    5.9957   -4.5961   25.5987 C   0  0  0  0  0  0  0  0  0  0  0  0
    6.4952   -5.2441   24.3258 C   0  0  0  0  0  0  0  0  0  0  0  0
    6.6696   -4.2361   23.1795 C   0  0  0  0  0  0  0  0  0  0  0  0
    6.6606   -1.5471   21.7581 N   0  0  0  0  0  0  0  0  0  0  0  0
    7.3244   -0.6886   20.9468 N   0  0  0  0  0  0  0  0  0  0  0  0
    6.6461   -0.0089   19.9013 C   0  0  0  0  0  0  0  0  0  0  0  0
    5.4333    0.6359   20.1612 C   0  0  0  0  0  0  0  0  0  0  0  0
    4.8061    1.3090   19.1087 C   0  0  0  0  0  0  0  0  0  0  0  0
    5.3977    1.2946   17.8389 C   0  0  0  0  0  0  0  0  0  0  0  0
    6.5528    0.6645   17.5796 N   0  0  0  0  0  0  0  0  0  0  0  0
    7.1593    0.0375   18.5921 C   0  0  0  0  0  0  0  0  0  0  0  0
  1  2  1  0
  2  3  2  0
  3  4  1  0
  4  5  2  0
  5  6  1  0
  6  7  2  0
  7  8  1  0
  8  9  1  0
  9 10  2  0
 10 11  1  0
 12 11  1  6
 12 13  1  0
 13 14  1  0
 14 15  2  0
 15 16  1  0
 16 17  1  0
 11 18  2  0
 18 19  1  0
 19 20  1  0
 20 21  2  0
 21 22  1  0
 22 23  2  0
 23 24  1  0
 24 25  2  0
  7  2  1  0
 19  9  1  0
 25 20  1  0
 17 12  1  0
M  END
>  <cnnaffinity>  (69) 
-6.54354

>  <filename>  (69) 
Oc1ccncc1Cc1nc(C2CC=CCC2)nn1-c1cccnc1

>  <enamine_id>  (69) 
PV-006783682833

$$$$

     RDKit          3D

 25 28  0  0  0  0  0  0  0  0999 V2000
   12.3010   -0.3668   21.8630 F   0  0  0  0  0  0  0  0  0  0  0  0
   11.6397    0.6702   22.4058 C   0  0  0  0  0  0  0  0  0  0  0  0
   12.2454    1.3918   23.4403 C   0  0  0  0  0  0  0  0  0  0  0  0
   11.6553    2.4542   24.0067 N   0  0  0  0  0  0  0  0  0  0  0  0
   10.4541    2.8267   23.5492 C   0  0  0  0  0  0  0  0  0  0  0  0
    9.7913    2.1422   22.5206 C   0  0  0  0  0  0  0  0  0  0  0  0
    8.2508    2.7279   21.9778 Cl  0  0  0  0  0  0  0  0  0  0  0  0
   10.3714    1.0091   21.9272 C   0  0  0  0  0  0  0  0  0  0  0  0
    9.6479    0.1763   20.8886 C   0  0  0  0  0  0  0  0  0  0  0  0
    8.5118   -0.6274   21.4432 C   0  0  0  0  0  0  0  0  0  0  0  0
    8.6076   -1.3889   22.5239 N   0  0  0  0  0  0  0  0  0  0  0  0
    7.3848   -1.9683   22.6179 C   0  0  0  0  0  0  0  0  0  0  0  0
    7.0290   -2.9133   23.7220 C   0  0  0  0  0  0  0  0  0  0  0  0
    7.0829   -4.4028   23.3503 C   0  0  0  0  0  0  0  0  0  0  0  0
    8.4784   -4.8629   22.8644 C   0  0  0  0  0  0  0  0  0  0  0  0
    7.9376   -4.9339   21.4167 C   0  0  0  0  0  0  0  0  0  0  0  0
    6.5008   -4.8047   21.9718 C   0  0  0  0  0  0  0  0  0  0  0  0
    6.5401   -1.6215   21.6648 N   0  0  0  0  0  0  0  0  0  0  0  0
    7.2655   -0.7719   20.8885 N   0  0  0  0  0  0  0  0  0  0  0  0
    6.6004   -0.0648   19.8370 C   0  0  0  0  0  0  0  0  0  0  0  0
    5.4011    0.6121   20.0974 C   0  0  0  0  0  0  0  0  0  0  0  0
    4.8015    1.3290   19.0604 C   0  0  0  0  0  0  0  0  0  0  0  0
    5.4010    1.3234   17.7939 C   0  0  0  0  0  0  0  0  0  0  0  0
    6.5259    0.6434   17.5222 N   0  0  0  0  0  0  0  0  0  0  0  0
    7.1033   -0.0340   18.5226 C   0  0  0  0  0  0  0  0  0  0  0  0
  1  2  1  0
  2  3  2  0
  3  4  1  0
  4  5  2  0
  5  6  1  0
  6  7  1  0
  6  8  2  0
  8  9  1  0
  9 10  1  0
 10 11  2  0
 11 12  1  0
 12 13  1  0
 13 14  1  0
 14 15  1  0
 15 16  1  0
 16 17  1  0
 12 18  2  0
 18 19  1  0
 19 20  1  0
 20 21  2  0
 21 22  1  0
 22 23  2  0
 23 24  1  0
 24 25  2  0
  8  2  1  0
 19 10  1  0
 25 20  1  0
 17 14  1  0
M  END
>  <cnnaffinity>  (70) 
-6.53854

>  <filename>  (70) 
Fc1cncc(Cl)c1Cc1nc(CC2CCC2)nn1-c1cccnc1

>  <enamine_id>  (70) 
PV-006845022511

$$$$

     RDKit          3D

 27 30  0  0  0  0  0  0  0  0999 V2000
    8.0197   -5.5674   27.1902 C   0  0  0  0  0  0  0  0  0  0  0  0
    8.2607   -4.5257   26.0969 C   0  0  2  0  0  0  0  0  0  0  0  0
    7.1941   -3.4147   26.1267 C   0  0  0  0  0  0  0  0  0  0  0  0
    7.3803   -2.3819   25.0061 C   0  0  0  0  0  0  0  0  0  0  0  0
    7.4036   -3.0631   23.6111 C   0  0  1  0  0  0  0  0  0  0  0  0
    7.6105   -2.0540   22.5209 C   0  0  0  0  0  0  0  0  0  0  0  0
    6.6827   -1.6711   21.6715 N   0  0  0  0  0  0  0  0  0  0  0  0
    7.3226   -0.7250   20.9289 N   0  0  0  0  0  0  0  0  0  0  0  0
    6.6470   -0.0475   19.8748 C   0  0  0  0  0  0  0  0  0  0  0  0
    5.4408    0.6081   20.1335 C   0  0  0  0  0  0  0  0  0  0  0  0
    4.8295    1.3030   19.0881 C   0  0  0  0  0  0  0  0  0  0  0  0
    5.4320    1.3057   17.8222 C   0  0  0  0  0  0  0  0  0  0  0  0
    6.5719    0.6485   17.5577 N   0  0  0  0  0  0  0  0  0  0  0  0
    7.1578   -0.0089   18.5642 C   0  0  0  0  0  0  0  0  0  0  0  0
    8.5831   -0.5613   21.4175 C   0  0  0  0  0  0  0  0  0  0  0  0
    9.5448    0.4848   21.0141 C   0  0  0  0  0  0  0  0  0  0  0  0
    9.3056    1.8579   21.6332 C   0  0  0  0  0  0  0  0  0  0  0  0
   10.3281    2.6859   21.1213 O   0  0  0  0  0  0  0  0  0  0  0  0
   11.4846    2.8995   21.7988 C   0  0  0  0  0  0  0  0  0  0  0  0
   11.9187    2.2078   22.9419 C   0  0  0  0  0  0  0  0  0  0  0  0
   13.1618    2.5717   23.4842 C   0  0  0  0  0  0  0  0  0  0  0  0
   13.8770    3.6363   22.9248 C   0  0  0  0  0  0  0  0  0  0  0  0
   13.4718    4.2914   21.8255 N   0  0  0  0  0  0  0  0  0  0  0  0
   12.3272    3.9045   21.2661 C   0  0  0  0  0  0  0  0  0  0  0  0
    8.8027   -1.4101   22.3938 N   0  0  0  0  0  0  0  0  0  0  0  0
    8.5016   -4.1534   23.5794 C   0  0  0  0  0  0  0  0  0  0  0  0
    8.3034   -5.1786   24.7022 C   0  0  0  0  0  0  0  0  0  0  0  0
  2  1  1  1
  2  3  1  0
  3  4  1  0
  4  5  1  0
  5  6  1  6
  6  7  2  0
  7  8  1  0
  8  9  1  0
  9 10  2  0
 10 11  1  0
 11 12  2  0
 12 13  1  0
 13 14  2  0
  8 15  1  0
 15 16  1  0
 16 17  1  0
 17 18  1  0
 18 19  1  0
 19 20  2  0
 20 21  1  0
 21 22  2  0
 22 23  1  0
 23 24  2  0
 15 25  2  0
  5 26  1  0
 26 27  1  0
 27  2  1  0
 25  6  1  0
 14  9  1  0
 24 19  1  0
M  END
>  <cnnaffinity>  (71) 
-6.53552

>  <filename>  (71) 
CC1CCC(c2nc(CCOc3cccnc3)n(-c3cccnc3)n2)CC1

>  <enamine_id>  (71) 
PV-007138852056

$$$$

     RDKit          3D

 26 29  0  0  0  0  0  0  0  0999 V2000
    8.2440   -4.9617   23.1532 C   0  0  0  0  0  0  0  0  0  0  0  0
    8.0947   -3.9509   24.1284 O   0  0  0  0  0  0  0  0  0  0  0  0
    7.1401   -2.9403   23.8293 C   0  0  2  0  0  0  0  0  0  0  0  0
    7.4774   -2.0876   22.6091 C   0  0  0  0  0  0  0  0  0  0  0  0
    6.5423   -1.6876   21.7627 N   0  0  0  0  0  0  0  0  0  0  0  0
    7.2253   -0.8690   20.9122 N   0  0  0  0  0  0  0  0  0  0  0  0
    6.5589   -0.1700   19.8670 C   0  0  0  0  0  0  0  0  0  0  0  0
    5.3970    0.5565   20.1351 C   0  0  0  0  0  0  0  0  0  0  0  0
    4.8256    1.2919   19.0941 C   0  0  0  0  0  0  0  0  0  0  0  0
    5.4246    1.2621   17.8273 C   0  0  0  0  0  0  0  0  0  0  0  0
    6.5231    0.5433   17.5537 N   0  0  0  0  0  0  0  0  0  0  0  0
    7.0733   -0.1526   18.5560 C   0  0  0  0  0  0  0  0  0  0  0  0
    8.5195   -0.7794   21.3322 C   0  0  0  0  0  0  0  0  0  0  0  0
    9.5695    0.1191   20.7577 C   0  0  0  0  0  0  0  0  0  0  0  0
   10.3682    0.8047   21.8544 C   0  0  0  0  0  0  0  0  0  0  0  0
   11.5254    0.1850   22.3862 C   0  0  0  0  0  0  0  0  0  0  0  0
   11.9775   -1.2014   21.9641 C   0  0  0  0  0  0  0  0  0  0  0  0
   12.2446    0.8622   23.3820 C   0  0  0  0  0  0  0  0  0  0  0  0
   11.7572    2.0472   23.9376 C   0  0  0  0  0  0  0  0  0  0  0  0
   10.5581    2.5957   23.4750 C   0  0  0  0  0  0  0  0  0  0  0  0
    9.8393    1.9805   22.4388 C   0  0  0  0  0  0  0  0  0  0  0  0
    8.5209    2.5873   21.9746 C   0  0  0  0  0  0  0  0  0  0  0  0
    8.7112   -1.6000   22.3495 N   0  0  0  0  0  0  0  0  0  0  0  0
    6.9975   -2.1248   25.1165 C   0  0  0  0  0  0  0  0  0  0  0  0
    8.0414   -1.1184   25.5172 C   0  0  0  0  0  0  0  0  0  0  0  0
    6.6668   -0.6590   25.1213 C   0  0  0  0  0  0  0  0  0  0  0  0
  1  2  1  0
  3  2  1  1
  3  4  1  0
  4  5  2  0
  5  6  1  0
  6  7  1  0
  7  8  2  0
  8  9  1  0
  9 10  2  0
 10 11  1  0
 11 12  2  0
  6 13  1  0
 13 14  1  0
 14 15  1  0
 15 16  2  0
 16 17  1  0
 16 18  1  0
 18 19  2  0
 19 20  1  0
 20 21  2  0
 21 22  1  0
 13 23  2  0
  3 24  1  0
 24 25  1  0
 25 26  1  0
 23  4  1  0
 26 24  1  0
 12  7  1  0
 21 15  1  0
M  END
>  <cnnaffinity>  (72) 
-6.53302

>  <filename>  (72) 
COC(c1nc(Cc2c(C)cccc2C)n(-c2cccnc2)n1)C1CC1

>  <enamine_id>  (72) 
PV-007133183919

$$$$

     RDKit          3D

 24 27  0  0  0  0  0  0  0  0999 V2000
   12.2782   -1.2642   21.3507 C   0  0  0  0  0  0  0  0  0  0  0  0
   11.8747    0.0192   21.9066 N   0  0  0  0  0  0  0  0  0  0  0  0
   12.5036    0.6706   22.9411 C   0  0  0  0  0  0  0  0  0  0  0  0
   11.7724    1.7872   23.2771 C   0  0  0  0  0  0  0  0  0  0  0  0
   10.6439    1.7985   22.4126 C   0  0  0  0  0  0  0  0  0  0  0  0
   10.7261    0.6983   21.5903 C   0  0  0  0  0  0  0  0  0  0  0  0
    9.6651    0.1790   20.6642 C   0  0  0  0  0  0  0  0  0  0  0  0
    8.6232   -0.6556   21.3364 C   0  0  0  0  0  0  0  0  0  0  0  0
    8.8399   -1.5148   22.3043 N   0  0  0  0  0  0  0  0  0  0  0  0
    7.6013   -2.0189   22.5531 C   0  0  0  0  0  0  0  0  0  0  0  0
    7.3786   -3.0042   23.6520 C   0  0  1  0  0  0  0  0  0  0  0  0
    8.1188   -4.3374   23.3470 C   0  0  0  0  0  0  0  0  0  0  0  0
    8.1040   -5.2759   24.5299 C   0  0  0  0  0  0  0  0  0  0  0  0
    7.8492   -4.8811   25.7792 C   0  0  0  0  0  0  0  0  0  0  0  0
    7.4872   -3.4581   26.1497 C   0  0  0  0  0  0  0  0  0  0  0  0
    7.8350   -2.4558   25.0332 C   0  0  0  0  0  0  0  0  0  0  0  0
    6.6529   -1.5651   21.7610 N   0  0  0  0  0  0  0  0  0  0  0  0
    7.3164   -0.7017   20.9493 N   0  0  0  0  0  0  0  0  0  0  0  0
    6.6429   -0.0141   19.8988 C   0  0  0  0  0  0  0  0  0  0  0  0
    5.4325    0.6386   20.1555 C   0  0  0  0  0  0  0  0  0  0  0  0
    4.8053    1.3130   19.1036 C   0  0  0  0  0  0  0  0  0  0  0  0
    5.3976    1.2961   17.8352 C   0  0  0  0  0  0  0  0  0  0  0  0
    6.5518    0.6623   17.5783 N   0  0  0  0  0  0  0  0  0  0  0  0
    7.1571    0.0342   18.5913 C   0  0  0  0  0  0  0  0  0  0  0  0
  1  2  1  0
  2  3  1  0
  3  4  2  0
  4  5  1  0
  5  6  2  0
  6  7  1  0
  7  8  1  0
  8  9  2  0
  9 10  1  0
 11 10  1  6
 11 12  1  0
 12 13  1  0
 13 14  2  0
 14 15  1  0
 15 16  1  0
 10 17  2  0
 17 18  1  0
 18 19  1  0
 19 20  2  0
 20 21  1  0
 21 22  2  0
 22 23  1  0
 23 24  2  0
  6  2  1  0
 18  8  1  0
 24 19  1  0
 16 11  1  0
M  END
>  <cnnaffinity>  (73) 
-6.52944

>  <filename>  (73) 
Cn1cccc1Cc1nc(C2CC=CCC2)nn1-c1cccnc1

>  <enamine_id>  (73) 
PV-006744407330

$$$$

     RDKit          3D

 24 27  0  0  0  0  0  0  0  0999 V2000
    7.8284    2.9036   21.7158 C   0  0  0  0  0  0  0  0  0  0  0  0
    9.0934    2.5142   22.4033 C   0  0  0  0  0  0  0  0  0  0  0  0
    9.5437    3.1371   23.4635 N   0  0  0  0  0  0  0  0  0  0  0  0
   10.6941    2.4641   23.8443 O   0  0  0  0  0  0  0  0  0  0  0  0
   10.8832    1.4562   22.9934 C   0  0  0  0  0  0  0  0  0  0  0  0
   12.2314    0.4665   23.2923 Cl  0  0  0  0  0  0  0  0  0  0  0  0
    9.9251    1.4124   22.0324 C   0  0  0  0  0  0  0  0  0  0  0  0
    9.6413    0.3717   20.9669 C   0  0  0  0  0  0  0  0  0  0  0  0
    8.5925   -0.6269   21.3653 C   0  0  0  0  0  0  0  0  0  0  0  0
    8.8012   -1.5099   22.3192 N   0  0  0  0  0  0  0  0  0  0  0  0
    7.5821   -2.0956   22.4805 C   0  0  0  0  0  0  0  0  0  0  0  0
    7.3766   -3.0985   23.5726 C   0  0  0  0  0  0  0  0  0  0  0  0
    8.4010   -4.2497   23.5339 C   0  0  0  0  0  0  0  0  0  0  0  0
    8.4232   -4.8339   24.9551 C   0  0  0  0  0  0  0  0  0  0  0  0
    7.9160   -3.7119   25.8937 C   0  0  0  0  0  0  0  0  0  0  0  0
    7.5767   -2.5112   24.9910 C   0  0  0  0  0  0  0  0  0  0  0  0
    6.6507   -1.6631   21.6609 N   0  0  0  0  0  0  0  0  0  0  0  0
    7.3071   -0.7295   20.9113 N   0  0  0  0  0  0  0  0  0  0  0  0
    6.6263   -0.0388   19.8646 C   0  0  0  0  0  0  0  0  0  0  0  0
    5.4171    0.6171   20.1282 C   0  0  0  0  0  0  0  0  0  0  0  0
    4.7959    1.3160   19.0860 C   0  0  0  0  0  0  0  0  0  0  0  0
    5.3968    1.3182   17.8231 C   0  0  0  0  0  0  0  0  0  0  0  0
    6.5404    0.6693   17.5517 N   0  0  0  0  0  0  0  0  0  0  0  0
    7.1406    0.0142   18.5573 C   0  0  0  0  0  0  0  0  0  0  0  0
  1  2  1  0
  2  3  2  0
  3  4  1  0
  4  5  1  0
  5  6  1  0
  5  7  2  0
  7  8  1  0
  8  9  1  0
  9 10  2  0
 10 11  1  0
 11 12  1  0
 12 13  1  0
 13 14  1  0
 14 15  1  0
 15 16  1  0
 11 17  2  0
 17 18  1  0
 18 19  1  0
 19 20  2  0
 20 21  1  0
 21 22  2  0
 22 23  1  0
 23 24  2  0
  7  2  1  0
 18  9  1  0
 24 19  1  0
 16 12  1  0
M  END
>  <cnnaffinity>  (74) 
-6.52797

>  <filename>  (74) 
Cc1noc(Cl)c1Cc1nc(C2CCCC2)nn1-c1cccnc1

>  <enamine_id>  (74) 
PV-007092331644

$$$$

     RDKit          3D

 23 26  0  0  0  0  0  0  0  0999 V2000
   12.4742    1.5338   23.5969 C   0  0  0  0  0  0  0  0  0  0  0  0
   11.2664    2.2269   23.4898 C   0  0  0  0  0  0  0  0  0  0  0  0
   10.3634    1.7994   22.5158 C   0  0  0  0  0  0  0  0  0  0  0  0
   10.6889    0.7076   21.6945 C   0  0  0  0  0  0  0  0  0  0  0  0
    9.6815    0.2135   20.6970 C   0  0  0  0  0  0  0  0  0  0  0  0
    8.6438   -0.6199   21.3417 C   0  0  0  0  0  0  0  0  0  0  0  0
    8.8557   -1.4649   22.3217 N   0  0  0  0  0  0  0  0  0  0  0  0
    7.6235   -1.9947   22.5449 C   0  0  0  0  0  0  0  0  0  0  0  0
    7.3907   -2.9783   23.6462 C   0  0  0  0  0  0  0  0  0  0  0  0
    8.2466   -4.2582   23.5287 C   0  0  0  0  0  0  0  0  0  0  0  0
    8.3401   -4.8245   24.9579 C   0  0  0  0  0  0  0  0  0  0  0  0
    8.0189   -3.6566   25.9249 C   0  0  0  0  0  0  0  0  0  0  0  0
    7.7237   -2.4232   25.0506 C   0  0  0  0  0  0  0  0  0  0  0  0
    6.6783   -1.5508   21.7440 N   0  0  0  0  0  0  0  0  0  0  0  0
    7.3401   -0.6829   20.9350 N   0  0  0  0  0  0  0  0  0  0  0  0
    6.6535    0.0064   19.9005 C   0  0  0  0  0  0  0  0  0  0  0  0
    5.4374    0.6464   20.1649 C   0  0  0  0  0  0  0  0  0  0  0  0
    4.8124    1.3118   19.1087 C   0  0  0  0  0  0  0  0  0  0  0  0
    5.4002    1.2956   17.8367 C   0  0  0  0  0  0  0  0  0  0  0  0
    6.5584    0.6718   17.5753 N   0  0  0  0  0  0  0  0  0  0  0  0
    7.1665    0.0516   18.5918 C   0  0  0  0  0  0  0  0  0  0  0  0
   11.8473    0.0524   21.7879 N   0  0  0  0  0  0  0  0  0  0  0  0
   12.7113    0.4653   22.7280 C   0  0  0  0  0  0  0  0  0  0  0  0
  1  2  2  0
  2  3  1  0
  3  4  2  0
  4  5  1  0
  5  6  1  0
  6  7  2  0
  7  8  1  0
  8  9  1  0
  9 10  1  0
 10 11  1  0
 11 12  1  0
 12 13  1  0
  8 14  2  0
 14 15  1  0
 15 16  1  0
 16 17  2  0
 17 18  1  0
 18 19  2  0
 19 20  1  0
 20 21  2  0
  4 22  1  0
 22 23  2  0
 23  1  1  0
 15  6  1  0
 21 16  1  0
 13  9  1  0
M  END
>  <cnnaffinity>  (75) 
-6.52736

>  <filename>  (75) 
c1ccc(Cc2nc(C3CCCC3)nn2-c2cccnc2)nc1

>  <enamine_id>  (75) 
PV-006939825166

$$$$

     RDKit          3D

 24 27  0  0  0  0  0  0  0  0999 V2000
   12.0485   -1.3746   21.4567 O   0  0  0  0  0  0  0  0  0  0  0  0
   11.8490   -0.1495   21.9714 C   0  0  0  0  0  0  0  0  0  0  0  0
   12.7785    0.2819   22.9165 C   0  0  0  0  0  0  0  0  0  0  0  0
   12.5856    1.5257   23.4925 C   0  0  0  0  0  0  0  0  0  0  0  0
   11.5536    2.3254   23.1849 N   0  0  0  0  0  0  0  0  0  0  0  0
   10.6831    1.8912   22.2666 C   0  0  0  0  0  0  0  0  0  0  0  0
   10.7637    0.6642   21.6004 C   0  0  0  0  0  0  0  0  0  0  0  0
    9.6525    0.2044   20.6711 C   0  0  0  0  0  0  0  0  0  0  0  0
    8.6102   -0.6418   21.3313 C   0  0  0  0  0  0  0  0  0  0  0  0
    8.8335   -1.4944   22.3015 N   0  0  0  0  0  0  0  0  0  0  0  0
    7.5979   -2.0078   22.5498 C   0  0  0  0  0  0  0  0  0  0  0  0
    7.3773   -2.9782   23.6624 C   0  0  0  0  0  0  0  0  0  0  0  0
    8.2544   -4.2457   23.5464 C   0  0  0  0  0  0  0  0  0  0  0  0
    8.3533   -4.8100   24.9771 C   0  0  0  0  0  0  0  0  0  0  0  0
    8.0217   -3.6405   25.9423 C   0  0  0  0  0  0  0  0  0  0  0  0
    7.7232   -2.4092   25.0620 C   0  0  0  0  0  0  0  0  0  0  0  0
    6.6465   -1.5626   21.7576 N   0  0  0  0  0  0  0  0  0  0  0  0
    7.3069   -0.6976   20.9435 N   0  0  0  0  0  0  0  0  0  0  0  0
    6.6391   -0.0074   19.8970 C   0  0  0  0  0  0  0  0  0  0  0  0
    5.4305    0.6447   20.1558 C   0  0  0  0  0  0  0  0  0  0  0  0
    4.8051    1.3159   19.1028 C   0  0  0  0  0  0  0  0  0  0  0  0
    5.3975    1.2978   17.8332 C   0  0  0  0  0  0  0  0  0  0  0  0
    6.5539    0.6683   17.5755 N   0  0  0  0  0  0  0  0  0  0  0  0
    7.1582    0.0411   18.5898 C   0  0  0  0  0  0  0  0  0  0  0  0
  1  2  1  0
  2  3  2  0
  3  4  1  0
  4  5  2  0
  5  6  1  0
  6  7  2  0
  7  8  1  0
  8  9  1  0
  9 10  2  0
 10 11  1  0
 11 12  1  0
 12 13  1  0
 13 14  1  0
 14 15  1  0
 15 16  1  0
 11 17  2  0
 17 18  1  0
 18 19  1  0
 19 20  2  0
 20 21  1  0
 21 22  2  0
 22 23  1  0
 23 24  2  0
  7  2  1  0
 18  9  1  0
 24 19  1  0
 16 12  1  0
M  END
>  <cnnaffinity>  (76) 
-6.52723

>  <filename>  (76) 
Oc1ccncc1Cc1nc(C2CCCC2)nn1-c1cccnc1

>  <enamine_id>  (76) 
PV-006963405199

$$$$

     RDKit          3D

 24 26  0  0  0  0  0  0  0  0999 V2000
    8.5497   -6.0710   22.0523 O   0  0  0  0  0  0  0  0  0  0  0  0
    8.4666   -4.7492   22.5299 C   0  0  0  0  0  0  0  0  0  0  0  0
    7.0953   -4.4165   23.1089 C   0  0  0  0  0  0  0  0  0  0  0  0
    7.0869   -2.9815   23.6768 C   0  0  0  0  0  0  0  0  0  0  0  0
    7.3819   -1.9322   22.6382 C   0  0  0  0  0  0  0  0  0  0  0  0
    6.5309   -1.5943   21.6941 N   0  0  0  0  0  0  0  0  0  0  0  0
    7.2472   -0.7342   20.9169 N   0  0  0  0  0  0  0  0  0  0  0  0
    6.5833   -0.0516   19.8553 C   0  0  0  0  0  0  0  0  0  0  0  0
    5.3812    0.6184   20.1073 C   0  0  0  0  0  0  0  0  0  0  0  0
    4.7867    1.3296   19.0614 C   0  0  0  0  0  0  0  0  0  0  0  0
    5.3954    1.3190   17.7997 C   0  0  0  0  0  0  0  0  0  0  0  0
    6.5197    0.6387   17.5354 N   0  0  0  0  0  0  0  0  0  0  0  0
    7.0918   -0.0325   18.5450 C   0  0  0  0  0  0  0  0  0  0  0  0
    8.5015   -0.5892   21.4529 C   0  0  0  0  0  0  0  0  0  0  0  0
    9.6604    0.1856   20.8893 C   0  0  0  0  0  0  0  0  0  0  0  0
   10.3741    1.0337   21.9296 C   0  0  0  0  0  0  0  0  0  0  0  0
    9.7828    2.1671   22.5165 C   0  0  0  0  0  0  0  0  0  0  0  0
    8.2448    2.7508   21.9606 Cl  0  0  0  0  0  0  0  0  0  0  0  0
   10.4300    2.8622   23.5488 C   0  0  0  0  0  0  0  0  0  0  0  0
   11.6290    2.4928   24.0207 N   0  0  0  0  0  0  0  0  0  0  0  0
   12.2379    1.4412   23.4534 C   0  0  0  0  0  0  0  0  0  0  0  0
   11.6508    0.7171   22.4112 C   0  0  0  0  0  0  0  0  0  0  0  0
   12.3409   -0.2986   21.8611 F   0  0  0  0  0  0  0  0  0  0  0  0
    8.6004   -1.3374   22.5396 N   0  0  0  0  0  0  0  0  0  0  0  0
  1  2  1  0
  2  3  1  0
  3  4  1  0
  4  5  1  0
  5  6  2  0
  6  7  1  0
  7  8  1  0
  8  9  2  0
  9 10  1  0
 10 11  2  0
 11 12  1  0
 12 13  2  0
  7 14  1  0
 14 15  1  0
 15 16  1  0
 16 17  2  0
 17 18  1  0
 17 19  1  0
 19 20  2  0
 20 21  1  0
 21 22  2  0
 22 23  1  0
 14 24  2  0
 24  5  1  0
 13  8  1  0
 22 16  1  0
M  END
>  <cnnaffinity>  (77) 
-6.52221

>  <filename>  (77) 
OCCCc1nc(Cc2c(F)cncc2Cl)n(-c2cccnc2)n1

>  <enamine_id>  (77) 
PV-006948439287

$$$$

     RDKit          3D

 25 28  0  0  0  0  0  0  0  0999 V2000
    8.3156    2.7489   22.0776 C   0  0  0  0  0  0  0  0  0  0  0  0
    9.6730    2.2522   22.5081 C   0  0  0  0  0  0  0  0  0  0  0  0
   10.3667    2.8644   23.5596 C   0  0  0  0  0  0  0  0  0  0  0  0
   11.5608    2.4810   24.0257 N   0  0  0  0  0  0  0  0  0  0  0  0
   12.1245    1.4259   23.4315 C   0  0  0  0  0  0  0  0  0  0  0  0
   11.5404    0.7402   22.3691 C   0  0  0  0  0  0  0  0  0  0  0  0
   10.3087    1.1665   21.8819 C   0  0  0  0  0  0  0  0  0  0  0  0
    9.6185    0.3735   20.8030 C   0  0  0  0  0  0  0  0  0  0  0  0
    8.6148   -0.5710   21.3636 C   0  0  0  0  0  0  0  0  0  0  0  0
    8.8574   -1.4349   22.3258 N   0  0  0  0  0  0  0  0  0  0  0  0
    7.6455   -2.0191   22.5222 C   0  0  0  0  0  0  0  0  0  0  0  0
    7.4346   -3.0417   23.5957 C   0  0  1  0  0  0  0  0  0  0  0  0
    8.2623   -4.3261   23.3323 C   0  0  0  0  0  0  0  0  0  0  0  0
    8.2394   -5.2801   24.5014 C   0  0  0  0  0  0  0  0  0  0  0  0
    7.8932   -4.9156   25.7391 C   0  0  0  0  0  0  0  0  0  0  0  0
    7.4172   -3.5235   26.0856 C   0  0  0  0  0  0  0  0  0  0  0  0
    7.7560   -2.4857   25.0023 C   0  0  0  0  0  0  0  0  0  0  0  0
    6.6935   -1.6040   21.7149 N   0  0  0  0  0  0  0  0  0  0  0  0
    7.3295   -0.6935   20.9307 N   0  0  0  0  0  0  0  0  0  0  0  0
    6.6465   -0.0024   19.8970 C   0  0  0  0  0  0  0  0  0  0  0  0
    5.4365    0.6461   20.1646 C   0  0  0  0  0  0  0  0  0  0  0  0
    4.8109    1.3141   19.1091 C   0  0  0  0  0  0  0  0  0  0  0  0
    5.4004    1.2966   17.8386 C   0  0  0  0  0  0  0  0  0  0  0  0
    6.5587    0.6728   17.5762 N   0  0  0  0  0  0  0  0  0  0  0  0
    7.1654    0.0478   18.5908 C   0  0  0  0  0  0  0  0  0  0  0  0
  1  2  1  0
  2  3  2  0
  3  4  1  0
  4  5  2  0
  5  6  1  0
  6  7  2  0
  7  8  1  0
  8  9  1  0
  9 10  2  0
 10 11  1  0
 12 11  1  6
 12 13  1  0
 13 14  1  0
 14 15  2  0
 15 16  1  0
 16 17  1  0
 11 18  2  0
 18 19  1  0
 19 20  1  0
 20 21  2  0
 21 22  1  0
 22 23  2  0
 23 24  1  0
 24 25  2  0
  7  2  1  0
 19  9  1  0
 25 20  1  0
 17 12  1  0
M  END
>  <cnnaffinity>  (78) 
-6.51901

>  <filename>  (78) 
Cc1cnccc1Cc1nc(C2CC=CCC2)nn1-c1cccnc1

>  <enamine_id>  (78) 
PV-007049790838

$$$$

     RDKit          3D

 27 30  0  0  0  0  0  0  0  0999 V2000
   10.8108    4.2457   22.8005 O   0  0  0  0  0  0  0  0  0  0  0  0
   11.0560    3.1560   23.3000 C   0  0  0  0  0  0  0  0  0  0  0  0
   12.3896    2.7662   23.7416 C   0  0  0  0  0  0  0  0  0  0  0  0
   12.6290    1.5902   24.3876 C   0  0  0  0  0  0  0  0  0  0  0  0
   11.5483    0.7051   24.6760 C   0  0  0  0  0  0  0  0  0  0  0  0
   10.3050    1.0057   24.2045 C   0  0  0  0  0  0  0  0  0  0  0  0
   10.0537    2.1602   23.4889 N   0  0  0  0  0  0  0  0  0  0  0  0
    8.8087    2.2929   22.7160 C   0  0  0  0  0  0  0  0  0  0  0  0
    9.0213    2.0008   21.2239 C   0  0  0  0  0  0  0  0  0  0  0  0
    9.5222    0.5791   20.9021 C   0  0  0  0  0  0  0  0  0  0  0  0
    8.6297   -0.5108   21.4009 C   0  0  0  0  0  0  0  0  0  0  0  0
    8.8622   -1.3620   22.3801 N   0  0  0  0  0  0  0  0  0  0  0  0
    7.6618   -1.9939   22.5427 C   0  0  0  0  0  0  0  0  0  0  0  0
    7.4547   -3.0299   23.6073 C   0  0  1  0  0  0  0  0  0  0  0  0
    8.3654   -4.2681   23.3785 C   0  0  0  0  0  0  0  0  0  0  0  0
    8.3717   -5.2098   24.5601 C   0  0  0  0  0  0  0  0  0  0  0  0
    7.9387   -4.8730   25.7770 C   0  0  0  0  0  0  0  0  0  0  0  0
    7.3808   -3.5087   26.1118 C   0  0  0  0  0  0  0  0  0  0  0  0
    7.6947   -2.4602   25.0289 C   0  0  0  0  0  0  0  0  0  0  0  0
    6.7186   -1.6016   21.7149 N   0  0  0  0  0  0  0  0  0  0  0  0
    7.3514   -0.6697   20.9499 N   0  0  0  0  0  0  0  0  0  0  0  0
    6.6627   -0.0102   19.8954 C   0  0  0  0  0  0  0  0  0  0  0  0
    5.4463    0.6280   20.1533 C   0  0  0  0  0  0  0  0  0  0  0  0
    4.8242    1.3068   19.1021 C   0  0  0  0  0  0  0  0  0  0  0  0
    5.4200    1.3053   17.8348 C   0  0  0  0  0  0  0  0  0  0  0  0
    6.5668    0.6615   17.5696 N   0  0  0  0  0  0  0  0  0  0  0  0
    7.1661    0.0223   18.5818 C   0  0  0  0  0  0  0  0  0  0  0  0
  1  2  2  0
  2  3  1  0
  3  4  2  0
  4  5  1  0
  5  6  2  0
  6  7  1  0
  7  8  1  0
  8  9  1  0
  9 10  1  0
 10 11  1  0
 11 12  2  0
 12 13  1  0
 14 13  1  6
 14 15  1  0
 15 16  1  0
 16 17  2  0
 17 18  1  0
 18 19  1  0
 13 20  2  0
 20 21  1  0
 21 22  1  0
 22 23  2  0
 23 24  1  0
 24 25  2  0
 25 26  1  0
 26 27  2  0
  7  2  1  0
 21 11  1  0
 27 22  1  0
 19 14  1  0
M  END
>  <cnnaffinity>  (79) 
-6.51852

>  <filename>  (79) 
O=c1ccccn1CCCc1nc(C2CC=CCC2)nn1-c1cccnc1

>  <enamine_id>  (79) 
PV-006944350697

$$$$

     RDKit          3D

 25 28  0  0  0  0  0  0  0  0999 V2000
   12.1097    2.2038   22.6874 Cl  0  0  0  0  0  0  0  0  0  0  0  0
   10.7149    1.9374   23.6856 C   0  0  0  0  0  0  0  0  0  0  0  0
   10.9140    1.7855   25.0565 C   0  0  0  0  0  0  0  0  0  0  0  0
    9.9196    1.5783   25.9193 N   0  0  0  0  0  0  0  0  0  0  0  0
    8.6818    1.4994   25.4287 C   0  0  0  0  0  0  0  0  0  0  0  0
    8.3922    1.6446   24.0681 C   0  0  0  0  0  0  0  0  0  0  0  0
    6.7341    1.5049   23.5714 Cl  0  0  0  0  0  0  0  0  0  0  0  0
    9.4231    1.8820   23.1371 C   0  0  0  0  0  0  0  0  0  0  0  0
    9.2057    1.9468   21.6476 C   0  0  0  0  0  0  0  0  0  0  0  0
    9.5298    0.5886   20.9622 C   0  0  0  0  0  0  0  0  0  0  0  0
    8.6332   -0.5225   21.4073 C   0  0  0  0  0  0  0  0  0  0  0  0
    8.8636   -1.3768   22.3936 N   0  0  0  0  0  0  0  0  0  0  0  0
    7.6673   -1.9950   22.5473 C   0  0  0  0  0  0  0  0  0  0  0  0
    7.3984   -2.9573   23.6592 C   0  0  0  0  0  0  0  0  0  0  0  0
    6.3726   -2.4355   24.7123 C   0  0  0  0  0  0  0  0  0  0  0  0
    5.2203   -3.8052   24.3604 S   0  0  0  0  0  0  0  0  0  0  0  0
    6.6005   -4.2186   23.2401 C   0  0  0  0  0  0  0  0  0  0  0  0
    6.7362   -1.6259   21.6901 N   0  0  0  0  0  0  0  0  0  0  0  0
    7.3607   -0.6872   20.9343 N   0  0  0  0  0  0  0  0  0  0  0  0
    6.6553   -0.0027   19.9013 C   0  0  0  0  0  0  0  0  0  0  0  0
    5.4407    0.6388   20.1688 C   0  0  0  0  0  0  0  0  0  0  0  0
    4.8139    1.3080   19.1125 C   0  0  0  0  0  0  0  0  0  0  0  0
    5.3991    1.2950   17.8402 C   0  0  0  0  0  0  0  0  0  0  0  0
    6.5581    0.6713   17.5777 N   0  0  0  0  0  0  0  0  0  0  0  0
    7.1657    0.0466   18.5912 C   0  0  0  0  0  0  0  0  0  0  0  0
  1  2  1  0
  2  3  2  0
  3  4  1  0
  4  5  2  0
  5  6  1  0
  6  7  1  0
  6  8  2  0
  8  9  1  0
  9 10  1  0
 10 11  1  0
 11 12  2  0
 12 13  1  0
 13 14  1  0
 14 15  1  0
 15 16  1  0
 16 17  1  0
 13 18  2  0
 18 19  1  0
 19 20  1  0
 20 21  2  0
 21 22  1  0
 22 23  2  0
 23 24  1  0
 24 25  2  0
  8  2  1  0
 19 11  1  0
 25 20  1  0
 17 14  1  0
M  END
>  <cnnaffinity>  (80) 
-6.51778

>  <filename>  (80) 
Clc1cncc(Cl)c1CCc1nc(C2CSC2)nn1-c1cccnc1

>  <enamine_id>  (80) 
PV-006749036658

$$$$

     RDKit          3D

 25 28  0  0  0  0  0  0  0  0999 V2000
   11.9631   -1.1551   21.9671 C   0  0  0  0  0  0  0  0  0  0  0  0
   11.5256    0.2454   22.3230 C   0  0  0  0  0  0  0  0  0  0  0  0
   12.2491    0.9762   23.2744 C   0  0  0  0  0  0  0  0  0  0  0  0
   11.7542    2.1781   23.7864 C   0  0  0  0  0  0  0  0  0  0  0  0
   10.5417    2.6885   23.3193 C   0  0  0  0  0  0  0  0  0  0  0  0
    9.8704    2.0102   22.2976 C   0  0  0  0  0  0  0  0  0  0  0  0
    8.3545    2.6704   21.7370 Cl  0  0  0  0  0  0  0  0  0  0  0  0
   10.3633    0.8180   21.7522 C   0  0  0  0  0  0  0  0  0  0  0  0
    9.5822    0.0867   20.6775 C   0  0  0  0  0  0  0  0  0  0  0  0
    8.5318   -0.7870   21.2794 C   0  0  0  0  0  0  0  0  0  0  0  0
    8.7238   -1.5998   22.3017 N   0  0  0  0  0  0  0  0  0  0  0  0
    7.5200   -2.1776   22.4771 C   0  0  0  0  0  0  0  0  0  0  0  0
    7.3096   -3.1704   23.5602 C   0  0  2  0  0  0  0  0  0  0  0  0
    6.6337   -4.4956   23.1446 C   0  0  0  0  0  0  0  0  0  0  0  0
    5.9996   -4.9709   24.4645 C   0  0  0  0  0  0  0  0  0  0  0  0
    6.0186   -3.8659   25.3596 O   0  0  0  0  0  0  0  0  0  0  0  0
    6.3615   -2.6872   24.6631 C   0  0  0  0  0  0  0  0  0  0  0  0
    6.5819   -1.7813   21.6397 N   0  0  0  0  0  0  0  0  0  0  0  0
    7.2482   -0.9066   20.8429 N   0  0  0  0  0  0  0  0  0  0  0  0
    6.5748   -0.1909   19.8232 C   0  0  0  0  0  0  0  0  0  0  0  0
    5.4338    0.5581   20.1228 C   0  0  0  0  0  0  0  0  0  0  0  0
    4.8569    1.3025   19.0936 C   0  0  0  0  0  0  0  0  0  0  0  0
    5.4223    1.2545   17.8121 C   0  0  0  0  0  0  0  0  0  0  0  0
    6.5080    0.5183   17.5188 N   0  0  0  0  0  0  0  0  0  0  0  0
    7.0633   -0.1853   18.5073 C   0  0  0  0  0  0  0  0  0  0  0  0
  1  2  1  0
  2  3  2  0
  3  4  1  0
  4  5  2  0
  5  6  1  0
  6  7  1  0
  6  8  2  0
  8  9  1  0
  9 10  1  0
 10 11  2  0
 11 12  1  0
 13 12  1  6
 13 14  1  0
 14 15  1  0
 15 16  1  0
 16 17  1  0
 12 18  2  0
 18 19  1  0
 19 20  1  0
 20 21  2  0
 21 22  1  0
 22 23  2  0
 23 24  1  0
 24 25  2  0
  8  2  1  0
 19 10  1  0
 25 20  1  0
 17 13  1  0
M  END
>  <cnnaffinity>  (81) 
-6.51776

>  <filename>  (81) 
Cc1cccc(Cl)c1Cc1nc(C2CCOC2)nn1-c1cccnc1

>  <enamine_id>  (81) 
PV-007133477746

$$$$

     RDKit          3D

 24 27  0  0  0  0  0  0  0  0999 V2000
   12.2825   -1.3794   21.1878 C   0  0  0  0  0  0  0  0  0  0  0  0
   11.8891   -0.1162   21.8784 C   0  0  0  0  0  0  0  0  0  0  0  0
   12.5166    0.5538   22.9003 C   0  0  0  0  0  0  0  0  0  0  0  0
   11.6795    1.6543   23.1709 C   0  0  0  0  0  0  0  0  0  0  0  0
   10.6164    1.6667   22.3810 N   0  0  0  0  0  0  0  0  0  0  0  0
   10.7629    0.5933   21.5808 N   0  0  0  0  0  0  0  0  0  0  0  0
    9.6751    0.2266   20.6964 C   0  0  0  0  0  0  0  0  0  0  0  0
    8.6454   -0.6108   21.3615 C   0  0  0  0  0  0  0  0  0  0  0  0
    8.8628   -1.4775   22.3197 N   0  0  0  0  0  0  0  0  0  0  0  0
    7.6252   -1.9813   22.5654 C   0  0  0  0  0  0  0  0  0  0  0  0
    7.4043   -2.9626   23.6709 C   0  0  1  0  0  0  0  0  0  0  0  0
    8.1162   -4.3080   23.3772 C   0  0  0  0  0  0  0  0  0  0  0  0
    8.0992   -5.2437   24.5603 C   0  0  0  0  0  0  0  0  0  0  0  0
    7.8556   -4.8416   25.8108 C   0  0  0  0  0  0  0  0  0  0  0  0
    7.5088   -3.4134   26.1644 C   0  0  0  0  0  0  0  0  0  0  0  0
    7.8554   -2.4161   25.0462 C   0  0  0  0  0  0  0  0  0  0  0  0
    6.6817   -1.5363   21.7647 N   0  0  0  0  0  0  0  0  0  0  0  0
    7.3449   -0.6780   20.9438 N   0  0  0  0  0  0  0  0  0  0  0  0
    6.6581    0.0069   19.9050 C   0  0  0  0  0  0  0  0  0  0  0  0
    5.4385    0.6458   20.1673 C   0  0  0  0  0  0  0  0  0  0  0  0
    4.8134    1.3102   19.1092 C   0  0  0  0  0  0  0  0  0  0  0  0
    5.4028    1.2952   17.8377 C   0  0  0  0  0  0  0  0  0  0  0  0
    6.5620    0.6724   17.5784 N   0  0  0  0  0  0  0  0  0  0  0  0
    7.1694    0.0533   18.5954 C   0  0  0  0  0  0  0  0  0  0  0  0
  1  2  1  0
  2  3  2  0
  3  4  1  0
  4  5  2  0
  5  6  1  0
  6  7  1  0
  7  8  1  0
  8  9  2  0
  9 10  1  0
 11 10  1  6
 11 12  1  0
 12 13  1  0
 13 14  2  0
 14 15  1  0
 15 16  1  0
 10 17  2  0
 17 18  1  0
 18 19  1  0
 19 20  2  0
 20 21  1  0
 21 22  2  0
 22 23  1  0
 23 24  2  0
  6  2  1  0
 18  8  1  0
 24 19  1  0
 16 11  1  0
M  END
>  <cnnaffinity>  (82) 
-6.51557

>  <filename>  (82) 
Cc1ccnn1Cc1nc(C2CC=CCC2)nn1-c1cccnc1

>  <enamine_id>  (82) 
PV-006888649226

$$$$

     RDKit          3D

 27 30  0  0  0  0  0  0  0  0999 V2000
    7.8023   -5.1705   25.7807 F   0  0  0  0  0  0  0  0  0  0  0  0
    6.4916   -4.9090   25.4658 C   0  0  0  0  0  0  0  0  0  0  0  0
    5.7528   -5.7517   26.2511 F   0  0  0  0  0  0  0  0  0  0  0  0
    6.2695   -5.2465   23.9998 C   0  0  0  0  0  0  0  0  0  0  0  0
    7.1219   -4.3718   23.0584 C   0  0  0  0  0  0  0  0  0  0  0  0
    7.4454   -2.9684   23.6473 C   0  0  0  0  0  0  0  0  0  0  0  0
    7.6891   -1.9577   22.5670 C   0  0  0  0  0  0  0  0  0  0  0  0
    6.7532   -1.6053   21.7007 N   0  0  0  0  0  0  0  0  0  0  0  0
    7.3728   -0.6668   20.9421 N   0  0  0  0  0  0  0  0  0  0  0  0
    6.6622    0.0055   19.9034 C   0  0  0  0  0  0  0  0  0  0  0  0
    5.4420    0.6409   20.1687 C   0  0  0  0  0  0  0  0  0  0  0  0
    4.8121    1.3091   19.1109 C   0  0  0  0  0  0  0  0  0  0  0  0
    5.4024    1.2946   17.8397 C   0  0  0  0  0  0  0  0  0  0  0  0
    6.5633    0.6757   17.5789 N   0  0  0  0  0  0  0  0  0  0  0  0
    7.1723    0.0571   18.5956 C   0  0  0  0  0  0  0  0  0  0  0  0
    8.6374   -0.4817   21.4160 C   0  0  0  0  0  0  0  0  0  0  0  0
    9.5432    0.5975   20.9318 C   0  0  0  0  0  0  0  0  0  0  0  0
    9.0595    2.0071   21.3102 C   0  0  0  0  0  0  0  0  0  0  0  0
    8.8829    2.2056   22.8235 C   0  0  0  0  0  0  0  0  0  0  0  0
   10.1416    1.9863   23.6059 C   0  0  0  0  0  0  0  0  0  0  0  0
   10.4359    0.9516   24.4517 C   0  0  0  0  0  0  0  0  0  0  0  0
   11.7010    1.2072   24.8535 N   0  0  0  0  0  0  0  0  0  0  0  0
   12.1689    2.3265   24.3061 N   0  0  0  0  0  0  0  0  0  0  0  0
   11.2327    2.8041   23.5510 N   0  0  0  0  0  0  0  0  0  0  0  0
    8.8679   -1.2970   22.4310 N   0  0  0  0  0  0  0  0  0  0  0  0
    6.3482   -2.4881   24.6225 C   0  0  0  0  0  0  0  0  0  0  0  0
    6.1699   -3.4502   25.8126 C   0  0  0  0  0  0  0  0  0  0  0  0
  1  2  1  0
  2  3  1  0
  2  4  1  0
  4  5  1  0
  5  6  1  0
  6  7  1  0
  7  8  2  0
  8  9  1  0
  9 10  1  0
 10 11  2  0
 11 12  1  0
 12 13  2  0
 13 14  1  0
 14 15  2  0
  9 16  1  0
 16 17  1  0
 17 18  1  0
 18 19  1  0
 19 20  1  0
 20 21  2  0
 21 22  1  0
 22 23  1  0
 23 24  2  0
 16 25  2  0
  6 26  1  0
 26 27  1  0
 27  2  1  0
 25  7  1  0
 15 10  1  0
 24 20  1  0
M  END
>  <cnnaffinity>  (83) 
-6.5082

>  <filename>  (83) 
FC1(F)CCC(c2nc(CCCc3c[nH]nn3)n(-c3cccnc3)n2)CC1

>  <enamine_id>  (83) 
PV-006726708843

$$$$

     RDKit          3D

 24 26  0  0  0  0  0  0  0  0999 V2000
    6.7744   -5.5502   24.0071 C   0  0  0  0  0  0  0  0  0  0  0  0
    7.1185   -4.4684   22.9840 C   0  0  0  0  0  0  0  0  0  0  0  0
    8.4623   -4.7692   22.3222 C   0  0  0  0  0  0  0  0  0  0  0  0
    7.1710   -3.0540   23.6175 C   0  0  0  0  0  0  0  0  0  0  0  0
    7.4445   -1.9708   22.6076 C   0  0  0  0  0  0  0  0  0  0  0  0
    6.5767   -1.6275   21.6773 N   0  0  0  0  0  0  0  0  0  0  0  0
    7.2698   -0.7402   20.9103 N   0  0  0  0  0  0  0  0  0  0  0  0
    6.5990   -0.0520   19.8598 C   0  0  0  0  0  0  0  0  0  0  0  0
    5.3953    0.6158   20.1178 C   0  0  0  0  0  0  0  0  0  0  0  0
    4.7955    1.3220   19.0720 C   0  0  0  0  0  0  0  0  0  0  0  0
    5.3963    1.3145   17.8073 C   0  0  0  0  0  0  0  0  0  0  0  0
    6.5260    0.6426   17.5393 N   0  0  0  0  0  0  0  0  0  0  0  0
    7.1024   -0.0242   18.5479 C   0  0  0  0  0  0  0  0  0  0  0  0
    8.5258   -0.5839   21.4378 C   0  0  0  0  0  0  0  0  0  0  0  0
    9.6655    0.2159   20.8677 C   0  0  0  0  0  0  0  0  0  0  0  0
   10.3749    1.0513   21.9168 C   0  0  0  0  0  0  0  0  0  0  0  0
    9.7821    2.1770   22.5126 C   0  0  0  0  0  0  0  0  0  0  0  0
    8.2410    2.7609   21.9676 Cl  0  0  0  0  0  0  0  0  0  0  0  0
   10.4314    2.8610   23.5510 C   0  0  0  0  0  0  0  0  0  0  0  0
   11.6277    2.4832   24.0205 N   0  0  0  0  0  0  0  0  0  0  0  0
   12.2323    1.4352   23.4474 C   0  0  0  0  0  0  0  0  0  0  0  0
   11.6453    0.7193   22.4006 C   0  0  0  0  0  0  0  0  0  0  0  0
   12.3236   -0.3037   21.8501 F   0  0  0  0  0  0  0  0  0  0  0  0
    8.6481   -1.3476   22.5115 N   0  0  0  0  0  0  0  0  0  0  0  0
  1  2  1  0
  2  3  1  0
  2  4  1  0
  4  5  1  0
  5  6  2  0
  6  7  1  0
  7  8  1  0
  8  9  2  0
  9 10  1  0
 10 11  2  0
 11 12  1  0
 12 13  2  0
  7 14  1  0
 14 15  1  0
 15 16  1  0
 16 17  2  0
 17 18  1  0
 17 19  1  0
 19 20  2  0
 20 21  1  0
 21 22  2  0
 22 23  1  0
 14 24  2  0
 24  5  1  0
 13  8  1  0
 22 16  1  0
M  END
>  <cnnaffinity>  (84) 
-6.50723

>  <filename>  (84) 
CC(C)Cc1nc(Cc2c(F)cncc2Cl)n(-c2cccnc2)n1

>  <enamine_id>  (84) 
PV-006968929357

$$$$

     RDKit          3D

 24 27  0  0  0  0  0  0  0  0999 V2000
   11.5140    1.5723   24.1340 C   0  0  0  0  0  0  0  0  0  0  0  0
   11.9798    0.5650   23.1124 C   0  0  0  0  0  0  0  0  0  0  0  0
   13.2629    0.0115   23.2193 C   0  0  0  0  0  0  0  0  0  0  0  0
   13.7267   -0.9368   22.3003 C   0  0  0  0  0  0  0  0  0  0  0  0
   12.8685   -1.4165   21.3084 C   0  0  0  0  0  0  0  0  0  0  0  0
   11.5710   -0.8999   21.2295 C   0  0  0  0  0  0  0  0  0  0  0  0
   11.1509    0.1530   22.0486 C   0  0  0  0  0  0  0  0  0  0  0  0
    9.7494    0.7244   21.8266 C   0  0  0  0  0  0  0  0  0  0  0  0
    8.7121   -0.3450   22.0138 C   0  0  0  0  0  0  0  0  0  0  0  0
    8.7437   -1.2177   23.0062 N   0  0  0  0  0  0  0  0  0  0  0  0
    7.6874   -2.0228   22.7564 C   0  0  0  0  0  0  0  0  0  0  0  0
    7.3708   -3.1946   23.6140 C   0  0  1  0  0  0  0  0  0  0  0  0
    8.3338   -4.4158   23.5487 C   0  0  0  0  0  0  0  0  0  0  0  0
    8.3204   -4.9454   25.0020 C   0  0  0  0  0  0  0  0  0  0  0  0
    7.4393   -4.1116   25.7364 O   0  0  0  0  0  0  0  0  0  0  0  0
    7.4078   -2.8498   25.1071 C   0  0  0  0  0  0  0  0  0  0  0  0
    6.9691   -1.6889   21.7115 N   0  0  0  0  0  0  0  0  0  0  0  0
    7.6224   -0.6015   21.2188 N   0  0  0  0  0  0  0  0  0  0  0  0
    7.0184    0.0646   20.1017 C   0  0  0  0  0  0  0  0  0  0  0  0
    5.7870    0.7055   20.2868 C   0  0  0  0  0  0  0  0  0  0  0  0
    5.1696    1.2933   19.1816 C   0  0  0  0  0  0  0  0  0  0  0  0
    5.7855    1.1892   17.9285 C   0  0  0  0  0  0  0  0  0  0  0  0
    6.9491    0.5509   17.7351 N   0  0  0  0  0  0  0  0  0  0  0  0
    7.5453   -0.0042   18.8017 C   0  0  0  0  0  0  0  0  0  0  0  0
  1  2  1  0
  2  3  2  0
  3  4  1  0
  4  5  2  0
  5  6  1  0
  6  7  2  0
  7  8  1  0
  8  9  1  0
  9 10  2  0
 10 11  1  0
 12 11  1  6
 12 13  1  0
 13 14  1  0
 14 15  1  0
 15 16  1  0
 11 17  2  0
 17 18  1  0
 18 19  1  0
 19 20  2  0
 20 21  1  0
 21 22  2  0
 22 23  1  0
 23 24  2  0
  7  2  1  0
 18  9  1  0
 24 19  1  0
 16 12  1  0
M  END
>  <cnnaffinity>  (85) 
-6.50698

>  <filename>  (85) 
Cc1ccccc1Cc1nc(C2CCOC2)nn1-c1cccnc1

>  <enamine_id>  (85) 
PV-006972993537

$$$$

     RDKit          3D

 24 27  0  0  0  0  0  0  0  0999 V2000
   12.4127   -1.2729   21.4578 C   0  0  0  0  0  0  0  0  0  0  0  0
   11.8469    0.0070   21.9616 C   0  0  0  0  0  0  0  0  0  0  0  0
   10.7203    0.6607   21.6127 C   0  0  0  0  0  0  0  0  0  0  0  0
    9.6615    0.2245   20.6682 C   0  0  0  0  0  0  0  0  0  0  0  0
    8.6310   -0.6150   21.3362 C   0  0  0  0  0  0  0  0  0  0  0  0
    8.8653   -1.4703   22.3046 N   0  0  0  0  0  0  0  0  0  0  0  0
    7.6346   -1.9953   22.5498 C   0  0  0  0  0  0  0  0  0  0  0  0
    7.4015   -2.9641   23.6665 C   0  0  2  0  0  0  0  0  0  0  0  0
    7.5444   -2.2838   25.0548 C   0  0  0  0  0  0  0  0  0  0  0  0
    7.5393   -3.2766   26.1924 C   0  0  0  0  0  0  0  0  0  0  0  0
    7.7679   -4.5803   26.0280 C   0  0  0  0  0  0  0  0  0  0  0  0
    7.9908   -5.2136   24.6734 C   0  0  0  0  0  0  0  0  0  0  0  0
    8.3352   -4.1891   23.5800 C   0  0  0  0  0  0  0  0  0  0  0  0
    6.6794   -1.5546   21.7588 N   0  0  0  0  0  0  0  0  0  0  0  0
    7.3307   -0.6882   20.9380 N   0  0  0  0  0  0  0  0  0  0  0  0
    6.6487    0.0011   19.9004 C   0  0  0  0  0  0  0  0  0  0  0  0
    5.4357    0.6460   20.1667 C   0  0  0  0  0  0  0  0  0  0  0  0
    4.8120    1.3116   19.1087 C   0  0  0  0  0  0  0  0  0  0  0  0
    5.4021    1.2950   17.8375 C   0  0  0  0  0  0  0  0  0  0  0  0
    6.5619    0.6726   17.5772 N   0  0  0  0  0  0  0  0  0  0  0  0
    7.1663    0.0517   18.5942 C   0  0  0  0  0  0  0  0  0  0  0  0
   10.5706    1.7927   22.4011 N   0  0  0  0  0  0  0  0  0  0  0  0
   11.6120    1.7732   23.1624 C   0  0  0  0  0  0  0  0  0  0  0  0
   12.4426    0.7204   22.9649 O   0  0  0  0  0  0  0  0  0  0  0  0
  1  2  1  0
  2  3  2  0
  3  4  1  0
  4  5  1  0
  5  6  2  0
  6  7  1  0
  8  7  1  6
  8  9  1  0
  9 10  1  0
 10 11  2  0
 11 12  1  0
 12 13  1  0
  7 14  2  0
 14 15  1  0
 15 16  1  0
 16 17  2  0
 17 18  1  0
 18 19  2  0
 19 20  1  0
 20 21  2  0
  3 22  1  0
 22 23  2  0
 23 24  1  0
 24  2  1  0
 15  5  1  0
 21 16  1  0
 13  8  1  0
M  END
>  <cnnaffinity>  (86) 
-6.50617

>  <filename>  (86) 
Cc1ocnc1Cc1nc(C2CC=CCC2)nn1-c1cccnc1

>  <enamine_id>  (86) 
PV-006827908842

$$$$

     RDKit          3D

 24 27  0  0  0  0  0  0  0  0999 V2000
    8.2508   -4.5214   25.9658 C   0  0  0  0  0  0  0  0  0  0  0  0
    7.5960   -3.3746   26.1406 C   0  0  0  0  0  0  0  0  0  0  0  0
    7.6412   -2.3202   25.0532 C   0  0  0  0  0  0  0  0  0  0  0  0
    7.4025   -2.9774   23.6570 C   0  0  1  0  0  0  0  0  0  0  0  0
    7.6221   -1.9958   22.5490 C   0  0  0  0  0  0  0  0  0  0  0  0
    6.6702   -1.5500   21.7585 N   0  0  0  0  0  0  0  0  0  0  0  0
    7.3300   -0.6879   20.9390 N   0  0  0  0  0  0  0  0  0  0  0  0
    6.6504    0.0024   19.9015 C   0  0  0  0  0  0  0  0  0  0  0  0
    5.4356    0.6458   20.1654 C   0  0  0  0  0  0  0  0  0  0  0  0
    4.8118    1.3119   19.1085 C   0  0  0  0  0  0  0  0  0  0  0  0
    5.4011    1.2955   17.8369 C   0  0  0  0  0  0  0  0  0  0  0  0
    6.5592    0.6716   17.5769 N   0  0  0  0  0  0  0  0  0  0  0  0
    7.1660    0.0506   18.5930 C   0  0  0  0  0  0  0  0  0  0  0  0
    8.6327   -0.6228   21.3420 C   0  0  0  0  0  0  0  0  0  0  0  0
    9.6576    0.2382   20.6861 C   0  0  0  0  0  0  0  0  0  0  0  0
   10.7340    0.7140   21.6244 C   0  0  0  0  0  0  0  0  0  0  0  0
   11.7391   -0.0855   21.9826 C   0  0  0  0  0  0  0  0  0  0  0  0
   12.7245    0.3350   23.0471 C   0  0  0  0  0  0  0  0  0  0  0  0
   12.7711    1.7414   23.2183 O   0  0  0  0  0  0  0  0  0  0  0  0
   11.4792    2.2753   23.4586 C   0  0  0  0  0  0  0  0  0  0  0  0
   10.5796    2.0943   22.2299 C   0  0  0  0  0  0  0  0  0  0  0  0
    8.8519   -1.4827   22.3112 N   0  0  0  0  0  0  0  0  0  0  0  0
    8.2173   -4.2996   23.4462 C   0  0  0  0  0  0  0  0  0  0  0  0
    9.0354   -4.7365   24.6852 C   0  0  0  0  0  0  0  0  0  0  0  0
  1  2  2  0
  2  3  1  0
  3  4  1  0
  4  5  1  6
  5  6  2  0
  6  7  1  0
  7  8  1  0
  8  9  2  0
  9 10  1  0
 10 11  2  0
 11 12  1  0
 12 13  2  0
  7 14  1  0
 14 15  1  0
 15 16  1  0
 16 17  2  0
 17 18  1  0
 18 19  1  0
 19 20  1  0
 20 21  1  0
 14 22  2  0
  4 23  1  0
 23 24  1  0
 24  1  1  0
 22  5  1  0
 13  8  1  0
 21 16  1  0
M  END
>  <cnnaffinity>  (87) 
-6.5032

>  <filename>  (87) 
C1=CCC(c2nc(CC3=CCOCC3)n(-c3cccnc3)n2)CC1

>  <enamine_id>  (87) 
PV-006909918148

$$$$

     RDKit          3D

 25 28  0  0  0  0  0  0  0  0999 V2000
   12.3770   -1.3455   21.5070 C   0  0  0  0  0  0  0  0  0  0  0  0
   11.7846   -0.0359   21.9031 C   0  0  0  0  0  0  0  0  0  0  0  0
   12.3455    0.6204   22.9087 N   0  0  0  0  0  0  0  0  0  0  0  0
   11.5737    1.6980   23.1173 N   0  0  0  0  0  0  0  0  0  0  0  0
   11.9185    2.5421   24.2341 C   0  0  0  0  0  0  0  0  0  0  0  0
   10.5216    1.7441   22.2720 C   0  0  0  0  0  0  0  0  0  0  0  0
   10.6149    0.6331   21.4591 C   0  0  0  0  0  0  0  0  0  0  0  0
    9.5462    0.0881   20.5559 C   0  0  0  0  0  0  0  0  0  0  0  0
    8.5144   -0.7392   21.2665 C   0  0  0  0  0  0  0  0  0  0  0  0
    8.7321   -1.5593   22.2717 N   0  0  0  0  0  0  0  0  0  0  0  0
    7.4982   -2.0633   22.5453 C   0  0  0  0  0  0  0  0  0  0  0  0
    7.3127   -3.0193   23.6829 C   0  0  2  0  0  0  0  0  0  0  0  0
    7.4990   -2.3024   25.0496 C   0  0  0  0  0  0  0  0  0  0  0  0
    7.5503   -3.2750   26.2040 C   0  0  0  0  0  0  0  0  0  0  0  0
    7.7513   -4.5869   26.0535 C   0  0  0  0  0  0  0  0  0  0  0  0
    7.9877   -5.2408   24.7105 C   0  0  0  0  0  0  0  0  0  0  0  0
    8.2946   -4.2161   23.6047 C   0  0  0  0  0  0  0  0  0  0  0  0
    6.5381   -1.6224   21.7559 N   0  0  0  0  0  0  0  0  0  0  0  0
    7.2022   -0.7971   20.9022 N   0  0  0  0  0  0  0  0  0  0  0  0
    6.5366   -0.0969   19.8613 C   0  0  0  0  0  0  0  0  0  0  0  0
    5.3533    0.5983   20.1223 C   0  0  0  0  0  0  0  0  0  0  0  0
    4.7774    1.3178   19.0716 C   0  0  0  0  0  0  0  0  0  0  0  0
    5.3886    1.3151   17.8113 C   0  0  0  0  0  0  0  0  0  0  0  0
    6.5154    0.6365   17.5516 N   0  0  0  0  0  0  0  0  0  0  0  0
    7.0695   -0.0437   18.5585 C   0  0  0  0  0  0  0  0  0  0  0  0
  1  2  1  0
  2  3  2  0
  3  4  1  0
  4  5  1  0
  4  6  1  0
  6  7  2  0
  7  8  1  0
  8  9  1  0
  9 10  2  0
 10 11  1  0
 12 11  1  6
 12 13  1  0
 13 14  1  0
 14 15  2  0
 15 16  1  0
 16 17  1  0
 11 18  2  0
 18 19  1  0
 19 20  1  0
 20 21  2  0
 21 22  1  0
 22 23  2  0
 23 24  1  0
 24 25  2  0
  7  2  1  0
 19  9  1  0
 25 20  1  0
 17 12  1  0
M  END
>  <cnnaffinity>  (88) 
-6.49979

>  <filename>  (88) 
Cc1nn(C)cc1Cc1nc(C2CC=CCC2)nn1-c1cccnc1

>  <enamine_id>  (88) 
PV-007108853197

$$$$

     RDKit          3D

 28 31  0  0  0  0  0  0  0  0999 V2000
    7.9465   -5.4887   27.2275 C   0  0  0  0  0  0  0  0  0  0  0  0
    8.2016   -4.4596   26.1189 C   0  0  1  0  0  0  0  0  0  0  0  0
    8.2841   -5.1310   24.7330 C   0  0  0  0  0  0  0  0  0  0  0  0
    8.5206   -4.1157   23.6049 C   0  0  0  0  0  0  0  0  0  0  0  0
    7.4323   -3.0130   23.6075 C   0  0  2  0  0  0  0  0  0  0  0  0
    7.6619   -2.0103   22.5175 C   0  0  0  0  0  0  0  0  0  0  0  0
    6.7240   -1.6319   21.6743 N   0  0  0  0  0  0  0  0  0  0  0  0
    7.3491   -0.6879   20.9243 N   0  0  0  0  0  0  0  0  0  0  0  0
    6.6531   -0.0027   19.8918 C   0  0  0  0  0  0  0  0  0  0  0  0
    5.4388    0.6399   20.1568 C   0  0  0  0  0  0  0  0  0  0  0  0
    4.8085    1.3124   19.1042 C   0  0  0  0  0  0  0  0  0  0  0  0
    5.3953    1.2977   17.8340 C   0  0  0  0  0  0  0  0  0  0  0  0
    6.5474    0.6657   17.5698 N   0  0  0  0  0  0  0  0  0  0  0  0
    7.1590    0.0391   18.5805 C   0  0  0  0  0  0  0  0  0  0  0  0
    8.6187   -0.5141   21.3984 C   0  0  0  0  0  0  0  0  0  0  0  0
    9.5518    0.5814   20.9992 C   0  0  0  0  0  0  0  0  0  0  0  0
    9.5154    1.7910   21.9638 C   0  0  0  0  0  0  0  0  0  0  0  0
    8.1653    2.5202   21.9609 C   0  0  0  0  0  0  0  0  0  0  0  0
    8.1563    3.6965   22.8456 N   0  0  0  0  0  0  0  0  0  0  0  0
    8.4757    4.9406   22.3579 C   0  0  0  0  0  0  0  0  0  0  0  0
    8.6262    6.0206   23.1693 C   0  0  0  0  0  0  0  0  0  0  0  0
    8.3510    5.8905   24.5701 C   0  0  0  0  0  0  0  0  0  0  0  0
    7.9855    4.6734   25.0651 C   0  0  0  0  0  0  0  0  0  0  0  0
    7.8912    3.4878   24.2197 C   0  0  0  0  0  0  0  0  0  0  0  0
    7.5941    2.3847   24.6580 O   0  0  0  0  0  0  0  0  0  0  0  0
    8.8507   -1.3636   22.3770 N   0  0  0  0  0  0  0  0  0  0  0  0
    7.3500   -2.3234   24.9998 C   0  0  0  0  0  0  0  0  0  0  0  0
    7.1276   -3.3538   26.1179 C   0  0  0  0  0  0  0  0  0  0  0  0
  2  1  1  1
  2  3  1  0
  3  4  1  0
  4  5  1  0
  5  6  1  6
  6  7  2  0
  7  8  1  0
  8  9  1  0
  9 10  2  0
 10 11  1  0
 11 12  2  0
 12 13  1  0
 13 14  2  0
  8 15  1  0
 15 16  1  0
 16 17  1  0
 17 18  1  0
 18 19  1  0
 19 20  1  0
 20 21  2  0
 21 22  1  0
 22 23  2  0
 23 24  1  0
 24 25  2  0
 15 26  2  0
  5 27  1  0
 27 28  1  0
 28  2  1  0
 26  6  1  0
 14  9  1  0
 24 19  1  0
M  END
>  <cnnaffinity>  (89) 
-6.49815

>  <filename>  (89) 
CC1CCC(c2nc(CCCn3ccccc3=O)n(-c3cccnc3)n2)CC1

>  <enamine_id>  (89) 
PV-007035574052

$$$$

     RDKit          3D

 24 27  0  0  0  0  0  0  0  0999 V2000
   12.4212   -1.2349   21.5245 C   0  0  0  0  0  0  0  0  0  0  0  0
   11.8926    0.0660   22.0392 C   0  0  0  0  0  0  0  0  0  0  0  0
   12.4629    0.7212   23.0432 N   0  0  0  0  0  0  0  0  0  0  0  0
   11.6672    1.7821   23.2661 N   0  0  0  0  0  0  0  0  0  0  0  0
   10.6011    1.8169   22.4328 C   0  0  0  0  0  0  0  0  0  0  0  0
   10.7069    0.7206   21.6110 C   0  0  0  0  0  0  0  0  0  0  0  0
    9.6508    0.2012   20.6707 C   0  0  0  0  0  0  0  0  0  0  0  0
    8.6143   -0.6376   21.3407 C   0  0  0  0  0  0  0  0  0  0  0  0
    8.8384   -1.4983   22.3081 N   0  0  0  0  0  0  0  0  0  0  0  0
    7.6065   -2.0166   22.5484 C   0  0  0  0  0  0  0  0  0  0  0  0
    7.3805   -2.9802   23.6666 C   0  0  2  0  0  0  0  0  0  0  0  0
    7.5455   -2.2863   25.0528 C   0  0  0  0  0  0  0  0  0  0  0  0
    7.5425   -3.2815   26.1904 C   0  0  0  0  0  0  0  0  0  0  0  0
    7.7690   -4.5884   26.0240 C   0  0  0  0  0  0  0  0  0  0  0  0
    7.9856   -5.2290   24.6701 C   0  0  0  0  0  0  0  0  0  0  0  0
    8.3297   -4.2012   23.5772 C   0  0  0  0  0  0  0  0  0  0  0  0
    6.6537   -1.5680   21.7595 N   0  0  0  0  0  0  0  0  0  0  0  0
    7.3107   -0.6984   20.9478 N   0  0  0  0  0  0  0  0  0  0  0  0
    6.6406   -0.0108   19.9005 C   0  0  0  0  0  0  0  0  0  0  0  0
    5.4313    0.6409   20.1589 C   0  0  0  0  0  0  0  0  0  0  0  0
    4.8071    1.3135   19.1048 C   0  0  0  0  0  0  0  0  0  0  0  0
    5.3969    1.2966   17.8343 C   0  0  0  0  0  0  0  0  0  0  0  0
    6.5510    0.6649   17.5757 N   0  0  0  0  0  0  0  0  0  0  0  0
    7.1557    0.0379   18.5896 C   0  0  0  0  0  0  0  0  0  0  0  0
  1  2  1  0
  2  3  2  0
  3  4  1  0
  4  5  1  0
  5  6  2  0
  6  7  1  0
  7  8  1  0
  8  9  2  0
  9 10  1  0
 11 10  1  6
 11 12  1  0
 12 13  1  0
 13 14  2  0
 14 15  1  0
 15 16  1  0
 10 17  2  0
 17 18  1  0
 18 19  1  0
 19 20  2  0
 20 21  1  0
 21 22  2  0
 22 23  1  0
 23 24  2  0
  6  2  1  0
 18  8  1  0
 24 19  1  0
 16 11  1  0
M  END
>  <cnnaffinity>  (90) 
-6.49691

>  <filename>  (90) 
Cc1n[nH]cc1Cc1nc(C2CC=CCC2)nn1-c1cccnc1

>  <enamine_id>  (90) 
PV-007067211005

$$$$

     RDKit          3D

 25 28  0  0  0  0  0  0  0  0999 V2000
   12.2948   -0.2661   21.8679 F   0  0  0  0  0  0  0  0  0  0  0  0
   11.6125    0.7654   22.3902 C   0  0  0  0  0  0  0  0  0  0  0  0
   12.1727    1.4576   23.4673 C   0  0  0  0  0  0  0  0  0  0  0  0
   11.5721    2.5095   24.0340 N   0  0  0  0  0  0  0  0  0  0  0  0
   10.3833    2.8856   23.5460 C   0  0  0  0  0  0  0  0  0  0  0  0
    9.7563    2.2245   22.4793 C   0  0  0  0  0  0  0  0  0  0  0  0
    8.1950    2.7763   21.9617 Cl  0  0  0  0  0  0  0  0  0  0  0  0
   10.3642    1.1184   21.8660 C   0  0  0  0  0  0  0  0  0  0  0  0
    9.6624    0.2810   20.8193 C   0  0  0  0  0  0  0  0  0  0  0  0
    8.5686   -0.5563   21.3956 C   0  0  0  0  0  0  0  0  0  0  0  0
    8.7471   -1.3738   22.4113 N   0  0  0  0  0  0  0  0  0  0  0  0
    7.5424   -1.9904   22.5415 C   0  0  0  0  0  0  0  0  0  0  0  0
    7.4139   -3.1206   23.5371 C   0  0  2  0  0  0  0  0  0  0  0  0
    7.5287   -4.5393   22.9013 C   0  0  0  0  0  0  0  0  0  0  0  0
    6.5839   -5.3813   23.7671 C   0  0  0  0  0  0  0  0  0  0  0  0
    5.5400   -4.3605   24.2198 C   0  0  0  0  0  0  0  0  0  0  0  0
    6.2071   -3.1090   24.2821 O   0  0  0  0  0  0  0  0  0  0  0  0
    6.6332   -1.6177   21.6617 N   0  0  0  0  0  0  0  0  0  0  0  0
    7.2946   -0.6957   20.9144 N   0  0  0  0  0  0  0  0  0  0  0  0
    6.6203   -0.0195   19.8571 C   0  0  0  0  0  0  0  0  0  0  0  0
    5.4077    0.6239   20.1208 C   0  0  0  0  0  0  0  0  0  0  0  0
    4.7888    1.3175   19.0786 C   0  0  0  0  0  0  0  0  0  0  0  0
    5.3855    1.3104   17.8130 C   0  0  0  0  0  0  0  0  0  0  0  0
    6.5259    0.6578   17.5402 N   0  0  0  0  0  0  0  0  0  0  0  0
    7.1303    0.0136   18.5458 C   0  0  0  0  0  0  0  0  0  0  0  0
  1  2  1  0
  2  3  2  0
  3  4  1  0
  4  5  2  0
  5  6  1  0
  6  7  1  0
  6  8  2  0
  8  9  1  0
  9 10  1  0
 10 11  2  0
 11 12  1  0
 13 12  1  6
 13 14  1  0
 14 15  1  0
 15 16  1  0
 16 17  1  0
 12 18  2  0
 18 19  1  0
 19 20  1  0
 20 21  2  0
 21 22  1  0
 22 23  2  0
 23 24  1  0
 24 25  2  0
  8  2  1  0
 19 10  1  0
 25 20  1  0
 17 13  1  0
M  END
>  <cnnaffinity>  (91) 
-6.49281

>  <filename>  (91) 
Fc1cncc(Cl)c1Cc1nc(C2CCCO2)nn1-c1cccnc1

>  <enamine_id>  (91) 
PV-006809061542

$$$$

     RDKit          3D

 27 30  0  0  0  0  0  0  0  0999 V2000
   10.3810    3.2929   24.0985 C   0  0  0  0  0  0  0  0  0  0  0  0
   10.1340    1.5961   24.5510 S   0  0  0  0  0  0  0  0  0  0  0  0
   10.9159    1.3673   25.7572 O   0  0  0  0  0  0  0  0  0  0  0  0
   10.4041    0.8164   23.3473 O   0  0  0  0  0  0  0  0  0  0  0  0
    8.3942    1.5174   24.9962 C   0  0  0  0  0  0  0  0  0  0  0  0
    8.0612    1.4913   26.3671 C   0  0  0  0  0  0  0  0  0  0  0  0
    6.7314    1.3626   26.7598 C   0  0  0  0  0  0  0  0  0  0  0  0
    5.7241    1.2382   25.7993 C   0  0  0  0  0  0  0  0  0  0  0  0
    6.0652    1.2652   24.4485 C   0  0  0  0  0  0  0  0  0  0  0  0
    7.3905    1.4334   24.0178 C   0  0  0  0  0  0  0  0  0  0  0  0
    7.6332    1.3299   22.5328 C   0  0  0  0  0  0  0  0  0  0  0  0
    7.5960   -0.1102   22.1274 C   0  0  0  0  0  0  0  0  0  0  0  0
    8.0702   -1.0871   22.8749 N   0  0  0  0  0  0  0  0  0  0  0  0
    8.0817   -2.1560   22.0487 C   0  0  0  0  0  0  0  0  0  0  0  0
    8.6579   -3.4921   22.4633 C   0  0  0  0  0  0  0  0  0  0  0  0
    7.9418   -4.7107   21.8293 C   0  0  0  0  0  0  0  0  0  0  0  0
    8.3413   -5.9095   22.7007 C   0  0  0  0  0  0  0  0  0  0  0  0
    8.6004   -5.3402   24.1177 C   0  0  0  0  0  0  0  0  0  0  0  0
    8.6810   -3.7957   23.9870 C   0  0  0  0  0  0  0  0  0  0  0  0
    7.6202   -1.9082   20.8290 N   0  0  0  0  0  0  0  0  0  0  0  0
    7.2539   -0.6026   20.8993 N   0  0  0  0  0  0  0  0  0  0  0  0
    6.5601    0.0149   19.8222 C   0  0  0  0  0  0  0  0  0  0  0  0
    5.3557    0.7051   20.0242 C   0  0  0  0  0  0  0  0  0  0  0  0
    4.7802    1.3644   18.9342 C   0  0  0  0  0  0  0  0  0  0  0  0
    5.4268    1.3182   17.6978 C   0  0  0  0  0  0  0  0  0  0  0  0
    6.5566    0.6179   17.4888 N   0  0  0  0  0  0  0  0  0  0  0  0
    7.0918   -0.0398   18.5226 C   0  0  0  0  0  0  0  0  0  0  0  0
  1  2  1  0
  2  3  2  0
  2  4  2  0
  2  5  1  0
  5  6  2  0
  6  7  1  0
  7  8  2  0
  8  9  1  0
  9 10  2  0
 10 11  1  0
 11 12  1  0
 12 13  2  0
 13 14  1  0
 14 15  1  0
 15 16  1  0
 16 17  1  0
 17 18  1  0
 18 19  1  0
 14 20  2  0
 20 21  1  0
 21 22  1  0
 22 23  2  0
 23 24  1  0
 24 25  2  0
 25 26  1  0
 26 27  2  0
 10  5  1  0
 21 12  1  0
 27 22  1  0
 19 15  1  0
M  END
>  <cnnaffinity>  (92) 
-6.48801

>  <filename>  (92) 
CS(=O)(=O)c1ccccc1Cc1nc(C2CCCC2)nn1-c1cccnc1

>  <enamine_id>  (92) 
PV-007172053450

$$$$

     RDKit          3D

 24 27  0  0  0  0  0  0  0  0999 V2000
   13.7027    0.5278   23.5406 C   0  0  0  0  0  0  0  0  0  0  0  0
   12.3840    0.8091   22.9007 C   0  0  0  0  0  0  0  0  0  0  0  0
   11.8363    0.1304   21.9227 N   0  0  0  0  0  0  0  0  0  0  0  0
   10.6337    0.7340   21.6654 C   0  0  0  0  0  0  0  0  0  0  0  0
    9.6570    0.1863   20.6871 C   0  0  0  0  0  0  0  0  0  0  0  0
    8.6169   -0.6381   21.3443 C   0  0  0  0  0  0  0  0  0  0  0  0
    8.8346   -1.4802   22.3252 N   0  0  0  0  0  0  0  0  0  0  0  0
    7.6060   -2.0105   22.5530 C   0  0  0  0  0  0  0  0  0  0  0  0
    7.3853   -3.0101   23.6384 C   0  0  1  0  0  0  0  0  0  0  0  0
    8.1081   -4.3505   23.3152 C   0  0  0  0  0  0  0  0  0  0  0  0
    8.0906   -5.3001   24.4906 C   0  0  0  0  0  0  0  0  0  0  0  0
    7.8530   -4.9136   25.7466 C   0  0  0  0  0  0  0  0  0  0  0  0
    7.5110   -3.4893   26.1299 C   0  0  0  0  0  0  0  0  0  0  0  0
    7.8604   -2.4804   25.0193 C   0  0  0  0  0  0  0  0  0  0  0  0
    6.6553   -1.5708   21.7539 N   0  0  0  0  0  0  0  0  0  0  0  0
    7.3143   -0.6979   20.9481 N   0  0  0  0  0  0  0  0  0  0  0  0
    6.6451   -0.0086   19.8988 C   0  0  0  0  0  0  0  0  0  0  0  0
    5.4347    0.6403   20.1561 C   0  0  0  0  0  0  0  0  0  0  0  0
    4.8069    1.3127   19.1044 C   0  0  0  0  0  0  0  0  0  0  0  0
    5.3971    1.2954   17.8343 C   0  0  0  0  0  0  0  0  0  0  0  0
    6.5508    0.6633   17.5760 N   0  0  0  0  0  0  0  0  0  0  0  0
    7.1600    0.0384   18.5890 C   0  0  0  0  0  0  0  0  0  0  0  0
   10.4632    1.8145   22.4816 C   0  0  0  0  0  0  0  0  0  0  0  0
   11.5915    1.8493   23.2790 N   0  0  0  0  0  0  0  0  0  0  0  0
  1  2  1  0
  2  3  2  0
  3  4  1  0
  4  5  1  0
  5  6  1  0
  6  7  2  0
  7  8  1  0
  9  8  1  6
  9 10  1  0
 10 11  1  0
 11 12  2  0
 12 13  1  0
 13 14  1  0
  8 15  2  0
 15 16  1  0
 16 17  1  0
 17 18  2  0
 18 19  1  0
 19 20  2  0
 20 21  1  0
 21 22  2  0
  4 23  2  0
 23 24  1  0
 24  2  1  0
 16  6  1  0
 22 17  1  0
 14  9  1  0
M  END
>  <cnnaffinity>  (93) 
-6.4851

>  <filename>  (93) 
Cc1nc(Cc2nc(C3CC=CCC3)nn2-c2cccnc2)c[nH]1

>  <enamine_id>  (93) 
PV-006988337522

$$$$

     RDKit          3D

 24 27  0  0  0  0  0  0  0  0999 V2000
   13.1226    1.6852   24.5346 O   0  0  0  0  0  0  0  0  0  0  0  0
   12.4736    1.3640   23.5570 C   0  0  0  0  0  0  0  0  0  0  0  0
   12.7418    0.2550   22.6596 C   0  0  0  0  0  0  0  0  0  0  0  0
   11.8294   -0.0780   21.7091 C   0  0  0  0  0  0  0  0  0  0  0  0
   10.6083    0.6632   21.5423 C   0  0  0  0  0  0  0  0  0  0  0  0
    9.5342    0.1345   20.6265 C   0  0  0  0  0  0  0  0  0  0  0  0
    8.4898   -0.6758   21.3307 C   0  0  0  0  0  0  0  0  0  0  0  0
    8.6914   -1.4660   22.3588 N   0  0  0  0  0  0  0  0  0  0  0  0
    7.4717   -2.0396   22.5650 C   0  0  0  0  0  0  0  0  0  0  0  0
    7.3001   -3.0426   23.6694 C   0  0  0  0  0  0  0  0  0  0  0  0
    7.7204   -2.4745   25.0465 C   0  0  0  0  0  0  0  0  0  0  0  0
    8.0036   -3.7017   25.9311 C   0  0  0  0  0  0  0  0  0  0  0  0
    8.3255   -4.8641   24.9587 C   0  0  0  0  0  0  0  0  0  0  0  0
    8.2401   -4.2697   23.5394 C   0  0  0  0  0  0  0  0  0  0  0  0
    6.5348   -1.6470   21.7277 N   0  0  0  0  0  0  0  0  0  0  0  0
    7.1996   -0.7887   20.9067 N   0  0  0  0  0  0  0  0  0  0  0  0
    6.5428   -0.0857   19.8619 C   0  0  0  0  0  0  0  0  0  0  0  0
    5.3565    0.6093   20.1150 C   0  0  0  0  0  0  0  0  0  0  0  0
    4.7767    1.3243   19.0638 C   0  0  0  0  0  0  0  0  0  0  0  0
    5.3883    1.3172   17.8041 C   0  0  0  0  0  0  0  0  0  0  0  0
    6.5189    0.6416   17.5493 N   0  0  0  0  0  0  0  0  0  0  0  0
    7.0757   -0.0338   18.5605 C   0  0  0  0  0  0  0  0  0  0  0  0
   10.4037    1.7726   22.3071 C   0  0  0  0  0  0  0  0  0  0  0  0
   11.3400    2.1198   23.2484 N   0  0  0  0  0  0  0  0  0  0  0  0
  1  2  2  0
  2  3  1  0
  3  4  2  0
  4  5  1  0
  5  6  1  0
  6  7  1  0
  7  8  2  0
  8  9  1  0
  9 10  1  0
 10 11  1  0
 11 12  1  0
 12 13  1  0
 13 14  1  0
  9 15  2  0
 15 16  1  0
 16 17  1  0
 17 18  2  0
 18 19  1  0
 19 20  2  0
 20 21  1  0
 21 22  2  0
  5 23  2  0
 23 24  1  0
 24  2  1  0
 16  7  1  0
 22 17  1  0
 14 10  1  0
M  END
>  <cnnaffinity>  (94) 
-6.48314

>  <filename>  (94) 
O=c1ccc(Cc2nc(C3CCCC3)nn2-c2cccnc2)c[nH]1

>  <enamine_id>  (94) 
PV-007127472338

$$$$

     RDKit          3D

 24 27  0  0  0  0  0  0  0  0999 V2000
   11.9697    2.7033   24.1640 C   0  0  0  0  0  0  0  0  0  0  0  0
   11.6903    1.6588   23.1473 C   0  0  0  0  0  0  0  0  0  0  0  0
   10.6148    1.6612   22.3769 N   0  0  0  0  0  0  0  0  0  0  0  0
   10.7543    0.5810   21.5787 N   0  0  0  0  0  0  0  0  0  0  0  0
    9.6692    0.2204   20.6955 C   0  0  0  0  0  0  0  0  0  0  0  0
    8.6382   -0.6108   21.3628 C   0  0  0  0  0  0  0  0  0  0  0  0
    8.8503   -1.4759   22.3249 N   0  0  0  0  0  0  0  0  0  0  0  0
    7.6120   -1.9811   22.5650 C   0  0  0  0  0  0  0  0  0  0  0  0
    7.3852   -2.9391   23.6858 C   0  0  0  0  0  0  0  0  0  0  0  0
    7.7200   -2.3571   25.0803 C   0  0  0  0  0  0  0  0  0  0  0  0
    8.0173   -3.5763   25.9736 C   0  0  0  0  0  0  0  0  0  0  0  0
    8.3465   -4.7574   25.0245 C   0  0  0  0  0  0  0  0  0  0  0  0
    8.2481   -4.2150   23.5875 C   0  0  0  0  0  0  0  0  0  0  0  0
    6.6713   -1.5338   21.7604 N   0  0  0  0  0  0  0  0  0  0  0  0
    7.3394   -0.6769   20.9431 N   0  0  0  0  0  0  0  0  0  0  0  0
    6.6569    0.0091   19.9039 C   0  0  0  0  0  0  0  0  0  0  0  0
    5.4381    0.6474   20.1653 C   0  0  0  0  0  0  0  0  0  0  0  0
    4.8130    1.3113   19.1085 C   0  0  0  0  0  0  0  0  0  0  0  0
    5.4018    1.2958   17.8366 C   0  0  0  0  0  0  0  0  0  0  0  0
    6.5613    0.6730   17.5766 N   0  0  0  0  0  0  0  0  0  0  0  0
    7.1697    0.0532   18.5938 C   0  0  0  0  0  0  0  0  0  0  0  0
   11.8847   -0.1251   21.8655 C   0  0  0  0  0  0  0  0  0  0  0  0
   12.2847   -1.3849   21.1766 C   0  0  0  0  0  0  0  0  0  0  0  0
   12.5182    0.5510   22.8767 C   0  0  0  0  0  0  0  0  0  0  0  0
  1  2  1  0
  2  3  2  0
  3  4  1  0
  4  5  1  0
  5  6  1  0
  6  7  2  0
  7  8  1  0
  8  9  1  0
  9 10  1  0
 10 11  1  0
 11 12  1  0
 12 13  1  0
  8 14  2  0
 14 15  1  0
 15 16  1  0
 16 17  2  0
 17 18  1  0
 18 19  2  0
 19 20  1  0
 20 21  2  0
  4 22  1  0
 22 23  1  0
 22 24  2  0
 24  2  1  0
 15  6  1  0
 21 16  1  0
 13  9  1  0
M  END
>  <cnnaffinity>  (95) 
-6.48204

>  <filename>  (95) 
Cc1cc(C)n(Cc2nc(C3CCCC3)nn2-c2cccnc2)n1

>  <enamine_id>  (95) 
PV-006801421899

$$$$

     RDKit          3D

 27 30  0  0  0  0  0  0  0  0999 V2000
    9.2528    3.6713   25.7349 F   0  0  0  0  0  0  0  0  0  0  0  0
    9.5944    2.9581   24.6495 C   0  0  0  0  0  0  0  0  0  0  0  0
    8.6652    2.8213   23.6238 C   0  0  0  0  0  0  0  0  0  0  0  0
    9.0016    2.0573   22.5000 C   0  0  0  0  0  0  0  0  0  0  0  0
   10.2584    1.4241   22.3984 C   0  0  0  0  0  0  0  0  0  0  0  0
   10.6237    0.5880   21.3824 O   0  0  0  0  0  0  0  0  0  0  0  0
    9.6146    0.0221   20.5581 C   0  0  0  0  0  0  0  0  0  0  0  0
    8.5644   -0.7840   21.2746 C   0  0  0  0  0  0  0  0  0  0  0  0
    8.7603   -1.5572   22.3229 N   0  0  0  0  0  0  0  0  0  0  0  0
    7.5101   -2.0065   22.6227 C   0  0  0  0  0  0  0  0  0  0  0  0
    7.2709   -2.8835   23.8293 C   0  0  0  0  0  0  0  0  0  0  0  0
    7.6017   -2.1425   25.1724 C   0  0  0  0  0  0  0  0  0  0  0  0
    9.0121   -2.4898   25.6611 C   0  0  0  0  0  0  0  0  0  0  0  0
    9.1745   -3.8772   25.9290 O   0  0  0  0  0  0  0  0  0  0  0  0
    8.4561   -4.7830   25.0970 C   0  0  0  0  0  0  0  0  0  0  0  0
    8.1202   -4.1914   23.7264 C   0  0  0  0  0  0  0  0  0  0  0  0
    6.5695   -1.5916   21.8012 N   0  0  0  0  0  0  0  0  0  0  0  0
    7.2510   -0.8238   20.9072 N   0  0  0  0  0  0  0  0  0  0  0  0
    6.5856   -0.1237   19.8657 C   0  0  0  0  0  0  0  0  0  0  0  0
    5.4066    0.5871   20.1264 C   0  0  0  0  0  0  0  0  0  0  0  0
    4.8315    1.3141   19.0834 C   0  0  0  0  0  0  0  0  0  0  0  0
    5.4405    1.3019   17.8236 C   0  0  0  0  0  0  0  0  0  0  0  0
    6.5572    0.6035   17.5591 N   0  0  0  0  0  0  0  0  0  0  0  0
    7.1047   -0.0934   18.5589 C   0  0  0  0  0  0  0  0  0  0  0  0
   11.1938    1.6430   23.4275 C   0  0  0  0  0  0  0  0  0  0  0  0
   12.8074    0.9997   23.3539 Cl  0  0  0  0  0  0  0  0  0  0  0  0
   10.8581    2.3735   24.5623 C   0  0  0  0  0  0  0  0  0  0  0  0
  1  2  1  0
  2  3  2  0
  3  4  1  0
  4  5  2  0
  5  6  1  0
  6  7  1  0
  7  8  1  0
  8  9  2  0
  9 10  1  0
 10 11  1  0
 11 12  1  0
 12 13  1  0
 13 14  1  0
 14 15  1  0
 15 16  1  0
 10 17  2  0
 17 18  1  0
 18 19  1  0
 19 20  2  0
 20 21  1  0
 21 22  2  0
 22 23  1  0
 23 24  2  0
  5 25  1  0
 25 26  1  0
 25 27  2  0
 27  2  1  0
 18  8  1  0
 24 19  1  0
 16 11  1  0
M  END
>  <cnnaffinity>  (96) 
-6.48171

>  <filename>  (96) 
Fc1ccc(OCc2nc(C3CCOCC3)nn2-c2cccnc2)c(Cl)c1

>  <enamine_id>  (96) 
PV-007091268391

$$$$

     RDKit          3D

 23 26  0  0  0  0  0  0  0  0999 V2000
   13.7768    0.3208   23.3064 C   0  0  0  0  0  0  0  0  0  0  0  0
   12.5073    0.8351   22.7086 C   0  0  0  0  0  0  0  0  0  0  0  0
   11.8244    0.2303   21.7896 N   0  0  0  0  0  0  0  0  0  0  0  0
   10.5897    0.8118   21.6217 C   0  0  0  0  0  0  0  0  0  0  0  0
    9.6229    0.1833   20.6782 C   0  0  0  0  0  0  0  0  0  0  0  0
    8.5741   -0.6103   21.3732 C   0  0  0  0  0  0  0  0  0  0  0  0
    8.7711   -1.3983   22.4023 N   0  0  0  0  0  0  0  0  0  0  0  0
    7.5533   -1.9899   22.5812 C   0  0  0  0  0  0  0  0  0  0  0  0
    7.3474   -2.9989   23.6718 C   0  0  0  0  0  0  0  0  0  0  0  0
    7.7329   -2.4390   25.0558 C   0  0  0  0  0  0  0  0  0  0  0  0
    8.0198   -3.6614   25.9394 C   0  0  0  0  0  0  0  0  0  0  0  0
    8.3408   -4.8270   24.9739 C   0  0  0  0  0  0  0  0  0  0  0  0
    8.2512   -4.2472   23.5513 C   0  0  0  0  0  0  0  0  0  0  0  0
    6.6252   -1.5994   21.7345 N   0  0  0  0  0  0  0  0  0  0  0  0
    7.2858   -0.7184   20.9366 N   0  0  0  0  0  0  0  0  0  0  0  0
    6.6123   -0.0377   19.8811 C   0  0  0  0  0  0  0  0  0  0  0  0
    5.4052    0.6225   20.1319 C   0  0  0  0  0  0  0  0  0  0  0  0
    4.7976    1.3146   19.0835 C   0  0  0  0  0  0  0  0  0  0  0  0
    5.4021    1.3068   17.8207 C   0  0  0  0  0  0  0  0  0  0  0  0
    6.5444    0.6534   17.5638 N   0  0  0  0  0  0  0  0  0  0  0  0
    7.1329    0.0025   18.5730 C   0  0  0  0  0  0  0  0  0  0  0  0
   10.3351    1.8889   22.4052 C   0  0  0  0  0  0  0  0  0  0  0  0
   11.7072    2.2232   23.3933 S   0  0  0  0  0  0  0  0  0  0  0  0
  1  2  1  0
  2  3  2  0
  3  4  1  0
  4  5  1  0
  5  6  1  0
  6  7  2  0
  7  8  1  0
  8  9  1  0
  9 10  1  0
 10 11  1  0
 11 12  1  0
 12 13  1  0
  8 14  2  0
 14 15  1  0
 15 16  1  0
 16 17  2  0
 17 18  1  0
 18 19  2  0
 19 20  1  0
 20 21  2  0
  4 22  2  0
 22 23  1  0
 23  2  1  0
 15  6  1  0
 21 16  1  0
 13  9  1  0
M  END
>  <cnnaffinity>  (97) 
-6.48138

>  <filename>  (97) 
Cc1nc(Cc2nc(C3CCCC3)nn2-c2cccnc2)cs1

>  <enamine_id>  (97) 
PV-006752528535

$$$$

     RDKit          3D

 25 28  0  0  0  0  0  0  0  0999 V2000
    9.6033    2.4139   21.3384 C   0  0  0  0  0  0  0  0  0  0  0  0
    9.6021    2.2213   22.8389 C   0  0  0  0  0  0  0  0  0  0  0  0
   10.7739    2.4742   23.5659 C   0  0  0  0  0  0  0  0  0  0  0  0
   10.8632    2.1472   24.9164 C   0  0  0  0  0  0  0  0  0  0  0  0
    9.7620    1.5965   25.5722 C   0  0  0  0  0  0  0  0  0  0  0  0
    8.5517    1.3885   24.9029 C   0  0  0  0  0  0  0  0  0  0  0  0
    7.4056    0.7580   25.6655 C   0  0  0  0  0  0  0  0  0  0  0  0
    8.4738    1.7022   23.5243 C   0  0  0  0  0  0  0  0  0  0  0  0
    7.2663    1.2177   22.7269 C   0  0  0  0  0  0  0  0  0  0  0  0
    7.5337   -0.1628   22.1966 C   0  0  0  0  0  0  0  0  0  0  0  0
    8.1000   -1.1187   22.9032 N   0  0  0  0  0  0  0  0  0  0  0  0
    8.2803   -2.1129   22.0050 C   0  0  0  0  0  0  0  0  0  0  0  0
    8.9383   -3.3763   22.4321 C   0  0  2  0  0  0  0  0  0  0  0  0
    8.2554   -4.1087   23.6059 C   0  0  0  0  0  0  0  0  0  0  0  0
    9.4109   -4.8325   24.2970 C   0  0  0  0  0  0  0  0  0  0  0  0
   10.5861   -4.1063   23.9836 O   0  0  0  0  0  0  0  0  0  0  0  0
   10.3447   -3.1047   23.0130 C   0  0  0  0  0  0  0  0  0  0  0  0
    7.8580   -1.8564   20.7875 N   0  0  0  0  0  0  0  0  0  0  0  0
    7.3260   -0.6087   20.9215 N   0  0  0  0  0  0  0  0  0  0  0  0
    6.6198    0.0134   19.8657 C   0  0  0  0  0  0  0  0  0  0  0  0
    5.4009    0.6620   20.1046 C   0  0  0  0  0  0  0  0  0  0  0  0
    4.7921    1.3206   19.0368 C   0  0  0  0  0  0  0  0  0  0  0  0
    5.4122    1.3023   17.7842 C   0  0  0  0  0  0  0  0  0  0  0  0
    6.5643    0.6503   17.5434 N   0  0  0  0  0  0  0  0  0  0  0  0
    7.1454    0.0102   18.5628 C   0  0  0  0  0  0  0  0  0  0  0  0
  1  2  1  0
  2  3  2  0
  3  4  1  0
  4  5  2  0
  5  6  1  0
  6  7  1  0
  6  8  2  0
  8  9  1  0
  9 10  1  0
 10 11  2  0
 11 12  1  0
 13 12  1  1
 13 14  1  0
 14 15  1  0
 15 16  1  0
 16 17  1  0
 12 18  2  0
 18 19  1  0
 19 20  1  0
 20 21  2  0
 21 22  1  0
 22 23  2  0
 23 24  1  0
 24 25  2  0
  8  2  1  0
 19 10  1  0
 25 20  1  0
 17 13  1  0
M  END
>  <cnnaffinity>  (98) 
-6.48073

>  <filename>  (98) 
Cc1cccc(C)c1Cc1nc(C2CCOC2)nn1-c1cccnc1

>  <enamine_id>  (98) 
PV-006731050253

$$$$

     RDKit          3D

 24 27  0  0  0  0  0  0  0  0999 V2000
   12.2674   -1.2656   21.4357 C   0  0  0  0  0  0  0  0  0  0  0  0
   11.8799    0.0504   21.9080 N   0  0  0  0  0  0  0  0  0  0  0  0
   12.4761    0.7530   22.9180 C   0  0  0  0  0  0  0  0  0  0  0  0
   11.8022    1.8287   23.2438 N   0  0  0  0  0  0  0  0  0  0  0  0
   10.7062    1.8153   22.4185 C   0  0  0  0  0  0  0  0  0  0  0  0
   10.7224    0.7258   21.5792 C   0  0  0  0  0  0  0  0  0  0  0  0
    9.6653    0.1791   20.6548 C   0  0  0  0  0  0  0  0  0  0  0  0
    8.6215   -0.6657   21.3220 C   0  0  0  0  0  0  0  0  0  0  0  0
    8.8271   -1.5048   22.3141 N   0  0  0  0  0  0  0  0  0  0  0  0
    7.5926   -2.0171   22.5444 C   0  0  0  0  0  0  0  0  0  0  0  0
    7.3510   -3.0168   23.6279 C   0  0  2  0  0  0  0  0  0  0  0  0
    7.0041   -4.4045   23.0339 C   0  0  0  0  0  0  0  0  0  0  0  0
    6.4738   -5.3583   24.0678 C   0  0  0  0  0  0  0  0  0  0  0  0
    6.0864   -4.9927   25.2895 C   0  0  0  0  0  0  0  0  0  0  0  0
    6.1040   -3.5651   25.7815 C   0  0  0  0  0  0  0  0  0  0  0  0
    6.2695   -2.5583   24.6338 C   0  0  0  0  0  0  0  0  0  0  0  0
    6.6506   -1.5831   21.7272 N   0  0  0  0  0  0  0  0  0  0  0  0
    7.3188   -0.7172   20.9222 N   0  0  0  0  0  0  0  0  0  0  0  0
    6.6350   -0.0291   19.8811 C   0  0  0  0  0  0  0  0  0  0  0  0
    5.4248    0.6216   20.1466 C   0  0  0  0  0  0  0  0  0  0  0  0
    4.8045    1.3049   19.0999 C   0  0  0  0  0  0  0  0  0  0  0  0
    5.3999    1.2969   17.8335 C   0  0  0  0  0  0  0  0  0  0  0  0
    6.5445    0.6500   17.5623 N   0  0  0  0  0  0  0  0  0  0  0  0
    7.1473    0.0104   18.5706 C   0  0  0  0  0  0  0  0  0  0  0  0
  1  2  1  0
  2  3  1  0
  3  4  2  0
  4  5  1  0
  5  6  2  0
  6  7  1  0
  7  8  1  0
  8  9  2  0
  9 10  1  0
 11 10  1  6
 11 12  1  0
 12 13  1  0
 13 14  2  0
 14 15  1  0
 15 16  1  0
 10 17  2  0
 17 18  1  0
 18 19  1  0
 19 20  2  0
 20 21  1  0
 21 22  2  0
 22 23  1  0
 23 24  2  0
  6  2  1  0
 18  8  1  0
 24 19  1  0
 16 11  1  0
M  END
>  <cnnaffinity>  (99) 
-6.48034

>  <filename>  (99) 
Cn1cncc1Cc1nc(C2CC=CCC2)nn1-c1cccnc1

>  <enamine_id>  (99) 
PV-007132671246

$$$$

     RDKit          3D

 25 28  0  0  0  0  0  0  0  0999 V2000
   11.9602   -1.2535   21.2239 O   0  0  0  0  0  0  0  0  0  0  0  0
   11.8472   -0.1838   21.8013 C   0  0  0  0  0  0  0  0  0  0  0  0
   12.9474    0.3026   22.7366 C   0  0  0  0  0  0  0  0  0  0  0  0
   12.5023    1.2872   23.8274 C   0  0  0  0  0  0  0  0  0  0  0  0
   11.6144    2.3658   23.1917 C   0  0  0  0  0  0  0  0  0  0  0  0
   10.3959    1.7154   22.5360 C   0  0  0  0  0  0  0  0  0  0  0  0
   10.7822    0.6747   21.5702 N   0  0  0  0  0  0  0  0  0  0  0  0
    9.6932    0.2095   20.7099 C   0  0  0  0  0  0  0  0  0  0  0  0
    8.6394   -0.6126   21.3848 C   0  0  0  0  0  0  0  0  0  0  0  0
    8.8252   -1.4511   22.3777 N   0  0  0  0  0  0  0  0  0  0  0  0
    7.6023   -1.9853   22.5689 C   0  0  0  0  0  0  0  0  0  0  0  0
    7.3679   -2.9697   23.6646 C   0  0  2  0  0  0  0  0  0  0  0  0
    6.9541   -4.3488   23.0896 C   0  0  0  0  0  0  0  0  0  0  0  0
    6.4445   -5.2809   24.1587 C   0  0  0  0  0  0  0  0  0  0  0  0
    6.0528   -4.8744   25.3710 C   0  0  0  0  0  0  0  0  0  0  0  0
    6.1402   -3.4382   25.8414 C   0  0  0  0  0  0  0  0  0  0  0  0
    6.3162   -2.4535   24.6756 C   0  0  0  0  0  0  0  0  0  0  0  0
    6.6705   -1.5520   21.7390 N   0  0  0  0  0  0  0  0  0  0  0  0
    7.3475   -0.6844   20.9472 N   0  0  0  0  0  0  0  0  0  0  0  0
    6.6647   -0.0010   19.9040 C   0  0  0  0  0  0  0  0  0  0  0  0
    5.4437    0.6365   20.1626 C   0  0  0  0  0  0  0  0  0  0  0  0
    4.8119    1.3069   19.1115 C   0  0  0  0  0  0  0  0  0  0  0  0
    5.4003    1.2942   17.8405 C   0  0  0  0  0  0  0  0  0  0  0  0
    6.5553    0.6672   17.5797 N   0  0  0  0  0  0  0  0  0  0  0  0
    7.1679    0.0413   18.5900 C   0  0  0  0  0  0  0  0  0  0  0  0
  1  2  2  0
  2  3  1  0
  3  4  1  0
  4  5  1  0
  5  6  1  0
  6  7  1  0
  7  8  1  0
  8  9  1  0
  9 10  2  0
 10 11  1  0
 12 11  1  6
 12 13  1  0
 13 14  1  0
 14 15  2  0
 15 16  1  0
 16 17  1  0
 11 18  2  0
 18 19  1  0
 19 20  1  0
 20 21  2  0
 21 22  1  0
 22 23  2  0
 23 24  1  0
 24 25  2  0
  7  2  1  0
 19  9  1  0
 25 20  1  0
 17 12  1  0
M  END
>  <cnnaffinity>  (100) 
-6.47995

>  <filename>  (100) 
O=C1CCCCN1Cc1nc(C2CC=CCC2)nn1-c1cccnc1

>  <enamine_id>  (100) 
PV-007112159888

$$$$

     RDKit          3D

 24 27  0  0  0  0  0  0  0  0999 V2000
   12.4042   -1.3309   21.4232 C   0  0  0  0  0  0  0  0  0  0  0  0
   11.8790   -0.0302   21.9443 C   0  0  0  0  0  0  0  0  0  0  0  0
   10.7270    0.6385   21.6301 C   0  0  0  0  0  0  0  0  0  0  0  0
    9.6557    0.2249   20.6888 C   0  0  0  0  0  0  0  0  0  0  0  0
    8.6206   -0.5921   21.3670 C   0  0  0  0  0  0  0  0  0  0  0  0
    8.8546   -1.4512   22.3329 N   0  0  0  0  0  0  0  0  0  0  0  0
    7.6302   -1.9998   22.5563 C   0  0  0  0  0  0  0  0  0  0  0  0
    7.3916   -2.9689   23.6684 C   0  0  2  0  0  0  0  0  0  0  0  0
    7.5491   -2.2752   25.0560 C   0  0  0  0  0  0  0  0  0  0  0  0
    7.5447   -3.2703   26.1934 C   0  0  0  0  0  0  0  0  0  0  0  0
    7.7703   -4.5768   26.0295 C   0  0  0  0  0  0  0  0  0  0  0  0
    7.9864   -5.2219   24.6775 C   0  0  0  0  0  0  0  0  0  0  0  0
    8.3343   -4.1959   23.5829 C   0  0  0  0  0  0  0  0  0  0  0  0
    6.6762   -1.5697   21.7569 N   0  0  0  0  0  0  0  0  0  0  0  0
    7.3223   -0.6786   20.9594 N   0  0  0  0  0  0  0  0  0  0  0  0
    6.6479   -0.0042   19.9036 C   0  0  0  0  0  0  0  0  0  0  0  0
    5.4343    0.6416   20.1573 C   0  0  0  0  0  0  0  0  0  0  0  0
    4.8062    1.3117   19.1044 C   0  0  0  0  0  0  0  0  0  0  0  0
    5.3981    1.2948   17.8352 C   0  0  0  0  0  0  0  0  0  0  0  0
    6.5534    0.6633   17.5773 N   0  0  0  0  0  0  0  0  0  0  0  0
    7.1616    0.0389   18.5926 C   0  0  0  0  0  0  0  0  0  0  0  0
   10.5832    1.7677   22.3940 N   0  0  0  0  0  0  0  0  0  0  0  0
   11.6316    1.7922   23.1720 C   0  0  0  0  0  0  0  0  0  0  0  0
   12.4532    0.7264   22.9470 N   0  0  0  0  0  0  0  0  0  0  0  0
  1  2  1  0
  2  3  2  0
  3  4  1  0
  4  5  1  0
  5  6  2  0
  6  7  1  0
  8  7  1  6
  8  9  1  0
  9 10  1  0
 10 11  2  0
 11 12  1  0
 12 13  1  0
  7 14  2  0
 14 15  1  0
 15 16  1  0
 16 17  2  0
 17 18  1  0
 18 19  2  0
 19 20  1  0
 20 21  2  0
  3 22  1  0
 22 23  2  0
 23 24  1  0
 24  2  1  0
 15  5  1  0
 21 16  1  0
 13  8  1  0
M  END
>  <cnnaffinity>  (101) 
-6.47821

>  <filename>  (101) 
Cc1[nH]cnc1Cc1nc(C2CC=CCC2)nn1-c1cccnc1

>  <enamine_id>  (101) 
PV-006787148611

$$$$

     RDKit          3D

 26 29  0  0  0  0  0  0  0  0999 V2000
    8.0878    1.9580   23.2147 C   0  0  0  0  0  0  0  0  0  0  0  0
    9.3879    2.7825   22.2556 S   0  0  0  0  0  0  0  0  0  0  0  0
    8.8745    2.8037   20.8459 O   0  0  0  0  0  0  0  0  0  0  0  0
   10.7139    1.5469   22.3750 C   0  0  0  0  0  0  0  0  0  0  0  0
   11.7231    1.8521   23.2919 C   0  0  0  0  0  0  0  0  0  0  0  0
   12.8515    1.0372   23.4010 C   0  0  0  0  0  0  0  0  0  0  0  0
   12.9631   -0.0964   22.5942 C   0  0  0  0  0  0  0  0  0  0  0  0
   11.9372   -0.4157   21.6923 C   0  0  0  0  0  0  0  0  0  0  0  0
   10.8009    0.4030   21.5612 C   0  0  0  0  0  0  0  0  0  0  0  0
    9.6597    0.0009   20.6567 C   0  0  0  0  0  0  0  0  0  0  0  0
    8.5462   -0.6472   21.4088 C   0  0  0  0  0  0  0  0  0  0  0  0
    8.6706   -1.3082   22.5383 N   0  0  0  0  0  0  0  0  0  0  0  0
    7.4521   -1.8891   22.7010 C   0  0  0  0  0  0  0  0  0  0  0  0
    7.2235   -2.8597   23.8212 C   0  0  1  0  0  0  0  0  0  0  0  0
    6.1825   -3.9702   23.5651 C   0  0  0  0  0  0  0  0  0  0  0  0
    6.6456   -5.0900   24.5058 C   0  0  0  0  0  0  0  0  0  0  0  0
    8.0257   -4.8709   24.7550 O   0  0  0  0  0  0  0  0  0  0  0  0
    8.4847   -3.6914   24.1248 C   0  0  0  0  0  0  0  0  0  0  0  0
    6.5643   -1.5795   21.7759 N   0  0  0  0  0  0  0  0  0  0  0  0
    7.2718   -0.7827   20.9246 N   0  0  0  0  0  0  0  0  0  0  0  0
    6.6034   -0.0949   19.8698 C   0  0  0  0  0  0  0  0  0  0  0  0
    5.4119    0.5952   20.1319 C   0  0  0  0  0  0  0  0  0  0  0  0
    4.8199    1.3072   19.0865 C   0  0  0  0  0  0  0  0  0  0  0  0
    5.4241    1.2961   17.8228 C   0  0  0  0  0  0  0  0  0  0  0  0
    6.5520    0.6180   17.5549 N   0  0  0  0  0  0  0  0  0  0  0  0
    7.1199   -0.0582   18.5605 C   0  0  0  0  0  0  0  0  0  0  0  0
  2  1  1  1
  2  3  2  0
  2  4  1  0
  4  5  2  0
  5  6  1  0
  6  7  2  0
  7  8  1  0
  8  9  2  0
  9 10  1  0
 10 11  1  0
 11 12  2  0
 12 13  1  0
 14 13  1  6
 14 15  1  0
 15 16  1  0
 16 17  1  0
 17 18  1  0
 13 19  2  0
 19 20  1  0
 20 21  1  0
 21 22  2  0
 22 23  1  0
 23 24  2  0
 24 25  1  0
 25 26  2  0
  9  4  1  0
 20 11  1  0
 26 21  1  0
 18 14  1  0
M  END
>  <cnnaffinity>  (102) 
-6.47791

>  <filename>  (102) 
CS(=O)c1ccccc1Cc1nc(C2CCOC2)nn1-c1cccnc1

>  <enamine_id>  (102) 
PV-007074051746

$$$$

     RDKit          3D

 25 28  0  0  0  0  0  0  0  0999 V2000
   12.1355   -1.0814   21.5501 C   0  0  0  0  0  0  0  0  0  0  0  0
   11.7485    0.2647   22.1035 C   0  0  0  0  0  0  0  0  0  0  0  0
   12.5611    0.8585   23.0724 C   0  0  0  0  0  0  0  0  0  0  0  0
   12.1345    1.9981   23.7467 C   0  0  0  0  0  0  0  0  0  0  0  0
   10.9154    2.5957   23.4300 C   0  0  0  0  0  0  0  0  0  0  0  0
   10.1045    2.0639   22.4186 C   0  0  0  0  0  0  0  0  0  0  0  0
    8.7562    2.6999   22.1362 C   0  0  0  0  0  0  0  0  0  0  0  0
   10.5440    0.9085   21.7333 C   0  0  0  0  0  0  0  0  0  0  0  0
    9.6222    0.2544   20.7230 C   0  0  0  0  0  0  0  0  0  0  0  0
    8.5648   -0.5712   21.3822 C   0  0  0  0  0  0  0  0  0  0  0  0
    8.7542   -1.3732   22.4108 N   0  0  0  0  0  0  0  0  0  0  0  0
    7.5443   -1.9707   22.5758 C   0  0  0  0  0  0  0  0  0  0  0  0
    7.4109   -3.0773   23.5971 C   0  0  2  0  0  0  0  0  0  0  0  0
    7.5088   -4.5065   22.9837 C   0  0  0  0  0  0  0  0  0  0  0  0
    6.5682   -5.3243   23.8727 C   0  0  0  0  0  0  0  0  0  0  0  0
    5.5307   -4.2877   24.2996 C   0  0  0  0  0  0  0  0  0  0  0  0
    6.2035   -3.0379   24.3428 O   0  0  0  0  0  0  0  0  0  0  0  0
    6.6250   -1.6068   21.6996 N   0  0  0  0  0  0  0  0  0  0  0  0
    7.2869   -0.7130   20.9203 N   0  0  0  0  0  0  0  0  0  0  0  0
    6.6177   -0.0315   19.8647 C   0  0  0  0  0  0  0  0  0  0  0  0
    5.4092    0.6230   20.1270 C   0  0  0  0  0  0  0  0  0  0  0  0
    4.7968    1.3139   19.0805 C   0  0  0  0  0  0  0  0  0  0  0  0
    5.3937    1.3078   17.8152 C   0  0  0  0  0  0  0  0  0  0  0  0
    6.5380    0.6570   17.5472 N   0  0  0  0  0  0  0  0  0  0  0  0
    7.1319    0.0085   18.5564 C   0  0  0  0  0  0  0  0  0  0  0  0
  1  2  1  0
  2  3  2  0
  3  4  1  0
  4  5  2  0
  5  6  1  0
  6  7  1  0
  6  8  2  0
  8  9  1  0
  9 10  1  0
 10 11  2  0
 11 12  1  0
 13 12  1  6
 13 14  1  0
 14 15  1  0
 15 16  1  0
 16 17  1  0
 12 18  2  0
 18 19  1  0
 19 20  1  0
 20 21  2  0
 21 22  1  0
 22 23  2  0
 23 24  1  0
 24 25  2  0
  8  2  1  0
 19 10  1  0
 25 20  1  0
 17 13  1  0
M  END
>  <cnnaffinity>  (103) 
-6.47783

>  <filename>  (103) 
Cc1cccc(C)c1Cc1nc(C2CCCO2)nn1-c1cccnc1

>  <enamine_id>  (103) 
PV-006878537355

$$$$

     RDKit          3D

 24 27  0  0  0  0  0  0  0  0999 V2000
   11.9453   -1.2774   21.2019 O   0  0  0  0  0  0  0  0  0  0  0  0
   11.8482   -0.2098   21.7837 C   0  0  0  0  0  0  0  0  0  0  0  0
   12.9585    0.2553   22.7198 C   0  0  0  0  0  0  0  0  0  0  0  0
   12.5319    1.2420   23.8166 C   0  0  0  0  0  0  0  0  0  0  0  0
   11.6615    2.3362   23.1852 C   0  0  0  0  0  0  0  0  0  0  0  0
   10.4294    1.7097   22.5285 C   0  0  0  0  0  0  0  0  0  0  0  0
   10.7952    0.6652   21.5592 N   0  0  0  0  0  0  0  0  0  0  0  0
    9.6912    0.2142   20.7082 C   0  0  0  0  0  0  0  0  0  0  0  0
    8.6353   -0.5969   21.3924 C   0  0  0  0  0  0  0  0  0  0  0  0
    8.8096   -1.4054   22.4120 N   0  0  0  0  0  0  0  0  0  0  0  0
    7.5841   -1.9438   22.6049 C   0  0  0  0  0  0  0  0  0  0  0  0
    7.3509   -2.8892   23.7456 C   0  0  0  0  0  0  0  0  0  0  0  0
    6.2387   -3.9164   23.4658 C   0  0  0  0  0  0  0  0  0  0  0  0
    6.5113   -5.0885   24.4279 C   0  0  0  0  0  0  0  0  0  0  0  0
    7.9992   -4.9756   24.8656 C   0  0  0  0  0  0  0  0  0  0  0  0
    8.5825   -3.7462   24.1379 C   0  0  0  0  0  0  0  0  0  0  0  0
    6.6569   -1.5165   21.7665 N   0  0  0  0  0  0  0  0  0  0  0  0
    7.3444   -0.6744   20.9518 N   0  0  0  0  0  0  0  0  0  0  0  0
    6.6663    0.0027   19.9034 C   0  0  0  0  0  0  0  0  0  0  0  0
    5.4455    0.6402   20.1579 C   0  0  0  0  0  0  0  0  0  0  0  0
    4.8105    1.3090   19.1086 C   0  0  0  0  0  0  0  0  0  0  0  0
    5.4003    1.2959   17.8363 C   0  0  0  0  0  0  0  0  0  0  0  0
    6.5564    0.6674   17.5750 N   0  0  0  0  0  0  0  0  0  0  0  0
    7.1694    0.0432   18.5881 C   0  0  0  0  0  0  0  0  0  0  0  0
  1  2  2  0
  2  3  1  0
  3  4  1  0
  4  5  1  0
  5  6  1  0
  6  7  1  0
  7  8  1  0
  8  9  1  0
  9 10  2  0
 10 11  1  0
 11 12  1  0
 12 13  1  0
 13 14  1  0
 14 15  1  0
 15 16  1  0
 11 17  2  0
 17 18  1  0
 18 19  1  0
 19 20  2  0
 20 21  1  0
 21 22  2  0
 22 23  1  0
 23 24  2  0
  7  2  1  0
 18  9  1  0
 24 19  1  0
 16 12  1  0
M  END
>  <cnnaffinity>  (104) 
-6.47477

>  <filename>  (104) 
O=C1CCCCN1Cc1nc(C2CCCC2)nn1-c1cccnc1

>  <enamine_id>  (104) 
PV-007064436596

$$$$

     RDKit          3D

 27 30  0  0  0  0  0  0  0  0999 V2000
    9.4402   -3.8011   26.4857 F   0  0  0  0  0  0  0  0  0  0  0  0
    8.2050   -4.3244   26.1727 C   0  0  0  0  0  0  0  0  0  0  0  0
    7.9099   -5.2306   27.1565 F   0  0  0  0  0  0  0  0  0  0  0  0
    7.1743   -3.2056   26.1921 C   0  0  0  0  0  0  0  0  0  0  0  0
    7.3909   -2.2095   25.0375 C   0  0  0  0  0  0  0  0  0  0  0  0
    7.4332   -2.9492   23.6645 C   0  0  0  0  0  0  0  0  0  0  0  0
    7.6620   -1.9879   22.5364 C   0  0  0  0  0  0  0  0  0  0  0  0
    6.7159   -1.5873   21.7136 N   0  0  0  0  0  0  0  0  0  0  0  0
    7.3497   -0.6539   20.9526 N   0  0  0  0  0  0  0  0  0  0  0  0
    6.6618    0.0115   19.8993 C   0  0  0  0  0  0  0  0  0  0  0  0
    5.4435    0.6471   20.1564 C   0  0  0  0  0  0  0  0  0  0  0  0
    4.8088    1.3127   19.1035 C   0  0  0  0  0  0  0  0  0  0  0  0
    5.4004    1.2969   17.8344 C   0  0  0  0  0  0  0  0  0  0  0  0
    6.5570    0.6677   17.5739 N   0  0  0  0  0  0  0  0  0  0  0  0
    7.1697    0.0482   18.5893 C   0  0  0  0  0  0  0  0  0  0  0  0
    8.6308   -0.5069   21.4015 C   0  0  0  0  0  0  0  0  0  0  0  0
    9.5329    0.5949   20.9488 C   0  0  0  0  0  0  0  0  0  0  0  0
    9.0591    2.0008   21.3604 C   0  0  0  0  0  0  0  0  0  0  0  0
    8.8942    2.1780   22.8836 C   0  0  0  0  0  0  0  0  0  0  0  0
   10.1146    1.9428   23.6452 N   0  0  0  0  0  0  0  0  0  0  0  0
   11.2494    2.6742   23.5894 C   0  0  0  0  0  0  0  0  0  0  0  0
   12.2163    1.9711   24.2757 C   0  0  0  0  0  0  0  0  0  0  0  0
   11.5365    0.8261   24.7522 C   0  0  0  0  0  0  0  0  0  0  0  0
   10.2741    0.8256   24.3616 N   0  0  0  0  0  0  0  0  0  0  0  0
    8.8684   -1.3855   22.3500 N   0  0  0  0  0  0  0  0  0  0  0  0
    8.5161   -4.0586   23.6752 C   0  0  0  0  0  0  0  0  0  0  0  0
    8.2923   -5.0434   24.8343 C   0  0  0  0  0  0  0  0  0  0  0  0
  1  2  1  0
  2  3  1  0
  2  4  1  0
  4  5  1  0
  5  6  1  0
  6  7  1  0
  7  8  2  0
  8  9  1  0
  9 10  1  0
 10 11  2  0
 11 12  1  0
 12 13  2  0
 13 14  1  0
 14 15  2  0
  9 16  1  0
 16 17  1  0
 17 18  1  0
 18 19  1  0
 19 20  1  0
 20 21  1  0
 21 22  2  0
 22 23  1  0
 23 24  2  0
 16 25  2  0
  6 26  1  0
 26 27  1  0
 27  2  1  0
 25  7  1  0
 15 10  1  0
 24 20  1  0
M  END
>  <cnnaffinity>  (105) 
-6.47361

>  <filename>  (105) 
FC1(F)CCC(c2nc(CCCn3cccn3)n(-c3cccnc3)n2)CC1

>  <enamine_id>  (105) 
PV-006829698224

$$$$

     RDKit          3D

 24 27  0  0  0  0  0  0  0  0999 V2000
   12.2652   -1.2392   21.4358 C   0  0  0  0  0  0  0  0  0  0  0  0
   11.8414    0.0604   21.9037 N   0  0  0  0  0  0  0  0  0  0  0  0
   12.5192    0.6504   22.8976 N   0  0  0  0  0  0  0  0  0  0  0  0
   11.7989    1.7155   23.2140 C   0  0  0  0  0  0  0  0  0  0  0  0
   10.6433    1.8185   22.4146 C   0  0  0  0  0  0  0  0  0  0  0  0
   10.7018    0.7240   21.5770 C   0  0  0  0  0  0  0  0  0  0  0  0
    9.6556    0.1796   20.6457 C   0  0  0  0  0  0  0  0  0  0  0  0
    8.6146   -0.6483   21.3296 C   0  0  0  0  0  0  0  0  0  0  0  0
    8.8244   -1.4898   22.3203 N   0  0  0  0  0  0  0  0  0  0  0  0
    7.5928   -2.0075   22.5531 C   0  0  0  0  0  0  0  0  0  0  0  0
    7.3443   -2.9669   23.6700 C   0  0  1  0  0  0  0  0  0  0  0  0
    6.5515   -2.2925   24.8224 C   0  0  0  0  0  0  0  0  0  0  0  0
    6.0400   -3.2890   25.8267 C   0  0  0  0  0  0  0  0  0  0  0  0
    5.9964   -4.6029   25.6099 C   0  0  0  0  0  0  0  0  0  0  0  0
    6.4676   -5.2590   24.3340 C   0  0  0  0  0  0  0  0  0  0  0  0
    6.6397   -4.2551   23.1858 C   0  0  0  0  0  0  0  0  0  0  0  0
    6.6435   -1.5624   21.7462 N   0  0  0  0  0  0  0  0  0  0  0  0
    7.3092   -0.7032   20.9382 N   0  0  0  0  0  0  0  0  0  0  0  0
    6.6334   -0.0192   19.8906 C   0  0  0  0  0  0  0  0  0  0  0  0
    5.4229    0.6300   20.1500 C   0  0  0  0  0  0  0  0  0  0  0  0
    4.8007    1.3074   19.1008 C   0  0  0  0  0  0  0  0  0  0  0  0
    5.3986    1.2950   17.8362 C   0  0  0  0  0  0  0  0  0  0  0  0
    6.5462    0.6510   17.5702 N   0  0  0  0  0  0  0  0  0  0  0  0
    7.1508    0.0167   18.5816 C   0  0  0  0  0  0  0  0  0  0  0  0
  1  2  1  0
  2  3  1  0
  3  4  2  0
  4  5  1  0
  5  6  2  0
  6  7  1  0
  7  8  1  0
  8  9  2  0
  9 10  1  0
 11 10  1  6
 11 12  1  0
 12 13  1  0
 13 14  2  0
 14 15  1  0
 15 16  1  0
 10 17  2  0
 17 18  1  0
 18 19  1  0
 19 20  2  0
 20 21  1  0
 21 22  2  0
 22 23  1  0
 23 24  2  0
  6  2  1  0
 18  8  1  0
 24 19  1  0
 16 11  1  0
M  END
>  <cnnaffinity>  (106) 
-6.46993

>  <filename>  (106) 
Cn1nccc1Cc1nc(C2CC=CCC2)nn1-c1cccnc1

>  <enamine_id>  (106) 
PV-006820891665

$$$$

     RDKit          3D

 28 31  0  0  0  0  0  0  0  0999 V2000
    4.3354    5.6495   21.8054 C   0  0  0  0  0  0  0  0  0  0  0  0
    5.7303    5.1492   22.1602 C   0  0  0  0  0  0  0  0  0  0  0  0
    6.4609    5.8423   23.1383 C   0  0  0  0  0  0  0  0  0  0  0  0
    7.7139    5.4139   23.5875 C   0  0  0  0  0  0  0  0  0  0  0  0
    8.4330    6.1707   24.6858 C   0  0  0  0  0  0  0  0  0  0  0  0
    8.2734    4.2564   23.0254 C   0  0  0  0  0  0  0  0  0  0  0  0
    7.5755    3.5482   22.0390 C   0  0  0  0  0  0  0  0  0  0  0  0
    8.0336    2.4006   21.4470 O   0  0  0  0  0  0  0  0  0  0  0  0
    9.3147    1.8874   21.7906 C   0  0  0  0  0  0  0  0  0  0  0  0
    9.5211    0.5959   20.9994 C   0  0  0  0  0  0  0  0  0  0  0  0
    8.5919   -0.4869   21.4164 C   0  0  0  0  0  0  0  0  0  0  0  0
    8.8269   -1.3348   22.3965 N   0  0  0  0  0  0  0  0  0  0  0  0
    7.6464   -2.0023   22.5203 C   0  0  0  0  0  0  0  0  0  0  0  0
    7.4013   -3.0263   23.5974 C   0  0  0  0  0  0  0  0  0  0  0  0
    8.4564   -4.1670   23.5737 C   0  0  0  0  0  0  0  0  0  0  0  0
    8.2605   -5.1079   24.7672 C   0  0  0  0  0  0  0  0  0  0  0  0
    8.2870   -4.4078   25.9970 O   0  0  0  0  0  0  0  0  0  0  0  0
    7.2567   -3.4434   26.1020 C   0  0  0  0  0  0  0  0  0  0  0  0
    7.3724   -2.3722   25.0135 C   0  0  0  0  0  0  0  0  0  0  0  0
    6.7116   -1.6305   21.6669 N   0  0  0  0  0  0  0  0  0  0  0  0
    7.3332   -0.6702   20.9336 N   0  0  0  0  0  0  0  0  0  0  0  0
    6.6501    0.0060   19.8895 C   0  0  0  0  0  0  0  0  0  0  0  0
    5.4327    0.6399   20.1513 C   0  0  0  0  0  0  0  0  0  0  0  0
    4.7995    1.3034   19.0969 C   0  0  0  0  0  0  0  0  0  0  0  0
    5.3915    1.2925   17.8289 C   0  0  0  0  0  0  0  0  0  0  0  0
    6.5477    0.6638   17.5645 N   0  0  0  0  0  0  0  0  0  0  0  0
    7.1599    0.0456   18.5820 C   0  0  0  0  0  0  0  0  0  0  0  0
    6.3132    4.0030   21.6022 C   0  0  0  0  0  0  0  0  0  0  0  0
  1  2  1  0
  2  3  2  0
  3  4  1  0
  4  5  1  0
  4  6  2  0
  6  7  1  0
  7  8  1  0
  8  9  1  0
  9 10  1  0
 10 11  1  0
 11 12  2  0
 12 13  1  0
 13 14  1  0
 14 15  1  0
 15 16  1  0
 16 17  1  0
 17 18  1  0
 18 19  1  0
 13 20  2  0
 20 21  1  0
 21 22  1  0
 22 23  2  0
 23 24  1  0
 24 25  2  0
 25 26  1  0
 26 27  2  0
  7 28  2  0
 28  2  1  0
 21 11  1  0
 27 22  1  0
 19 14  1  0
M  END
>  <cnnaffinity>  (107) 
-6.46857

>  <filename>  (107) 
Cc1cc(C)cc(OCCc2nc(C3CCOCC3)nn2-c2cccnc2)c1

>  <enamine_id>  (107) 
PV-006777713581

$$$$

     RDKit          3D

 23 25  0  0  0  0  0  0  0  0999 V2000
    5.6350   -5.8181   22.5021 C   0  0  0  0  0  0  0  0  0  0  0  0
    7.0300   -5.0911   21.6082 S   0  0  0  0  0  0  0  0  0  0  0  0
    7.9455   -4.4624   23.0375 C   0  0  0  0  0  0  0  0  0  0  0  0
    7.4452   -3.0999   23.5322 C   0  0  0  0  0  0  0  0  0  0  0  0
    7.6354   -2.0292   22.5182 C   0  0  0  0  0  0  0  0  0  0  0  0
    6.6800   -1.5998   21.7256 N   0  0  0  0  0  0  0  0  0  0  0  0
    7.3199   -0.7005   20.9331 N   0  0  0  0  0  0  0  0  0  0  0  0
    6.6422   -0.0047   19.8982 C   0  0  0  0  0  0  0  0  0  0  0  0
    5.4327    0.6428   20.1659 C   0  0  0  0  0  0  0  0  0  0  0  0
    4.8127    1.3129   19.1089 C   0  0  0  0  0  0  0  0  0  0  0  0
    5.3988    1.2964   17.8367 C   0  0  0  0  0  0  0  0  0  0  0  0
    6.5549    0.6684   17.5733 N   0  0  0  0  0  0  0  0  0  0  0  0
    7.1603    0.0457   18.5895 C   0  0  0  0  0  0  0  0  0  0  0  0
    8.6102   -0.5909   21.3619 C   0  0  0  0  0  0  0  0  0  0  0  0
    9.6262    0.3255   20.7870 C   0  0  0  0  0  0  0  0  0  0  0  0
   10.3598    1.1073   21.8526 C   0  0  0  0  0  0  0  0  0  0  0  0
   11.6175    0.6830   22.2942 C   0  0  0  0  0  0  0  0  0  0  0  0
   12.2682    1.3202   23.3531 C   0  0  0  0  0  0  0  0  0  0  0  0
   11.6412    2.3967   23.9842 C   0  0  0  0  0  0  0  0  0  0  0  0
   10.3802    2.8354   23.5791 C   0  0  0  0  0  0  0  0  0  0  0  0
    9.7511    2.1832   22.5182 C   0  0  0  0  0  0  0  0  0  0  0  0
    8.1571    2.7162   22.0623 Cl  0  0  0  0  0  0  0  0  0  0  0  0
    8.8503   -1.4580   22.3214 N   0  0  0  0  0  0  0  0  0  0  0  0
  1  2  1  0
  2  3  1  0
  3  4  1  0
  4  5  1  0
  5  6  2  0
  6  7  1  0
  7  8  1  0
  8  9  2  0
  9 10  1  0
 10 11  2  0
 11 12  1  0
 12 13  2  0
  7 14  1  0
 14 15  1  0
 15 16  1  0
 16 17  2  0
 17 18  1  0
 18 19  2  0
 19 20  1  0
 20 21  2  0
 21 22  1  0
 14 23  2  0
 23  5  1  0
 13  8  1  0
 21 16  1  0
M  END
>  <cnnaffinity>  (108) 
-6.46729

>  <filename>  (108) 
CSCCc1nc(Cc2ccccc2Cl)n(-c2cccnc2)n1

>  <enamine_id>  (108) 
PV-007100746495

$$$$

     RDKit          3D

 26 29  0  0  0  0  0  0  0  0999 V2000
    4.8159    1.3043   19.0983 C   0  0  0  0  0  0  0  0  0  0  0  0
    5.4140    1.3015   17.8335 C   0  0  0  0  0  0  0  0  0  0  0  0
    6.5598    0.6543   17.5681 N   0  0  0  0  0  0  0  0  0  0  0  0
    7.1662    0.0182   18.5781 C   0  0  0  0  0  0  0  0  0  0  0  0
    6.6645   -0.0039   19.8938 C   0  0  0  0  0  0  0  0  0  0  0  0
    7.3603   -0.6478   20.9600 N   0  0  0  0  0  0  0  0  0  0  0  0
    6.7424   -1.5884   21.7267 N   0  0  0  0  0  0  0  0  0  0  0  0
    7.6879   -1.9636   22.5647 C   0  0  0  0  0  0  0  0  0  0  0  0
    7.4228   -2.9460   23.6781 C   0  0  0  0  0  0  0  0  0  0  0  0
    7.0019   -2.1807   24.9802 C   0  0  0  0  0  0  0  0  0  0  0  0
    7.3053   -2.9771   26.2577 C   0  0  0  0  0  0  0  0  0  0  0  0
    8.8198   -3.2711   26.4044 C   0  0  0  0  0  0  0  0  0  0  0  0
    9.5490   -3.3998   25.0427 C   0  0  0  0  0  0  0  0  0  0  0  0
    8.6174   -3.9113   23.9303 C   0  0  0  0  0  0  0  0  0  0  0  0
    8.8768   -1.3195   22.4048 N   0  0  0  0  0  0  0  0  0  0  0  0
    8.6309   -0.4699   21.4249 C   0  0  0  0  0  0  0  0  0  0  0  0
    9.5081    0.6309   20.9453 C   0  0  0  0  0  0  0  0  0  0  0  0
    9.0091    2.0308   21.3469 C   0  0  0  0  0  0  0  0  0  0  0  0
    8.8658    2.2008   22.8776 C   0  0  0  0  0  0  0  0  0  0  0  0
   10.1607    1.9208   23.5993 C   0  0  0  0  0  0  0  0  0  0  0  0
   10.3539    0.7885   24.4228 C   0  0  0  0  0  0  0  0  0  0  0  0
   11.5555    0.4392   24.9256 N   0  0  0  0  0  0  0  0  0  0  0  0
   12.5698    1.2667   24.6197 C   0  0  0  0  0  0  0  0  0  0  0  0
   12.3759    2.4354   23.8634 C   0  0  0  0  0  0  0  0  0  0  0  0
   11.1809    2.7676   23.3510 N   0  0  0  0  0  0  0  0  0  0  0  0
    5.4413    0.6257   20.1464 C   0  0  0  0  0  0  0  0  0  0  0  0
  1  2  2  0
  2  3  1  0
  3  4  2  0
  4  5  1  0
  5  6  1  0
  6  7  1  0
  7  8  2  0
  8  9  1  0
  9 10  1  0
 10 11  1  0
 11 12  1  0
 12 13  1  0
 13 14  1  0
  8 15  1  0
 15 16  2  0
 16 17  1  0
 17 18  1  0
 18 19  1  0
 19 20  1  0
 20 21  2  0
 21 22  1  0
 22 23  2  0
 23 24  1  0
 24 25  2  0
  5 26  2  0
 26  1  1  0
 16  6  1  0
 25 20  1  0
 14  9  1  0
M  END
>  <cnnaffinity>  (109) 
-6.46685

>  <filename>  (109) 
c1cncc(-n2nc(C3CCCCC3)nc2CCCc2cnccn2)c1

>  <enamine_id>  (109) 
PV-006895665329

$$$$

     RDKit          3D

 26 29  0  0  0  0  0  0  0  0999 V2000
   13.5573   -0.2745   22.4884 F   0  0  0  0  0  0  0  0  0  0  0  0
   12.5014    0.4406   22.8805 C   0  0  0  0  0  0  0  0  0  0  0  0
   11.5396    0.7899   21.9464 C   0  0  0  0  0  0  0  0  0  0  0  0
   10.4278    1.5427   22.3455 C   0  0  0  0  0  0  0  0  0  0  0  0
    9.5302    1.7836   21.3603 O   0  0  0  0  0  0  0  0  0  0  0  0
    8.2748    2.4008   21.6332 C   0  0  0  0  0  0  0  0  0  0  0  0
    7.3288    1.5959   22.5520 C   0  0  0  0  0  0  0  0  0  0  0  0
    7.4361    0.1339   22.2798 C   0  0  0  0  0  0  0  0  0  0  0  0
    8.0359   -0.7236   23.0801 N   0  0  0  0  0  0  0  0  0  0  0  0
    8.2790   -1.7878   22.2667 C   0  0  0  0  0  0  0  0  0  0  0  0
    9.0968   -2.9435   22.7459 C   0  0  0  0  0  0  0  0  0  0  0  0
    8.6127   -3.6068   24.0524 C   0  0  0  0  0  0  0  0  0  0  0  0
   10.3255   -3.9085   24.5972 S   0  0  0  0  0  0  0  0  0  0  0  0
   10.5072   -2.6149   23.3220 C   0  0  0  0  0  0  0  0  0  0  0  0
    7.8266   -1.6611   21.0368 N   0  0  0  0  0  0  0  0  0  0  0  0
    7.2510   -0.4222   21.0479 N   0  0  0  0  0  0  0  0  0  0  0  0
    6.6081    0.1171   19.8971 C   0  0  0  0  0  0  0  0  0  0  0  0
    5.4377    0.8888   19.9919 C   0  0  0  0  0  0  0  0  0  0  0  0
    4.9218    1.4511   18.8200 C   0  0  0  0  0  0  0  0  0  0  0  0
    5.5620    1.2071   17.6038 C   0  0  0  0  0  0  0  0  0  0  0  0
    6.6642    0.4441   17.5001 N   0  0  0  0  0  0  0  0  0  0  0  0
    7.1675   -0.0900   18.6181 C   0  0  0  0  0  0  0  0  0  0  0  0
   10.3154    1.9762   23.6743 C   0  0  0  0  0  0  0  0  0  0  0  0
   11.2732    1.5795   24.6132 C   0  0  0  0  0  0  0  0  0  0  0  0
   12.3616    0.8030   24.2288 C   0  0  0  0  0  0  0  0  0  0  0  0
   13.4822    0.2389   25.4087 Cl  0  0  0  0  0  0  0  0  0  0  0  0
  1  2  1  0
  2  3  2  0
  3  4  1  0
  4  5  1  0
  5  6  1  0
  6  7  1  0
  7  8  1  0
  8  9  2  0
  9 10  1  0
 10 11  1  0
 11 12  1  0
 12 13  1  0
 13 14  1  0
 10 15  2  0
 15 16  1  0
 16 17  1  0
 17 18  2  0
 18 19  1  0
 19 20  2  0
 20 21  1  0
 21 22  2  0
  4 23  2  0
 23 24  1  0
 24 25  2  0
 25 26  1  0
 25  2  1  0
 16  8  1  0
 22 17  1  0
 14 11  1  0
M  END
>  <cnnaffinity>  (110) 
-6.46675

>  <filename>  (110) 
Fc1cc(OCCc2nc(C3CSC3)nn2-c2cccnc2)ccc1Cl

>  <enamine_id>  (110) 
PV-006767528916

$$$$

     RDKit          3D

 23 26  0  0  0  0  0  0  0  0999 V2000
   12.1672   -0.2930   21.9118 F   0  0  0  0  0  0  0  0  0  0  0  0
   11.5212    0.7738   22.4067 C   0  0  0  0  0  0  0  0  0  0  0  0
   12.0799    1.4768   23.4754 C   0  0  0  0  0  0  0  0  0  0  0  0
   11.4836    2.5363   24.0324 N   0  0  0  0  0  0  0  0  0  0  0  0
   10.2989    2.9102   23.5366 C   0  0  0  0  0  0  0  0  0  0  0  0
    9.6795    2.2482   22.4699 C   0  0  0  0  0  0  0  0  0  0  0  0
    8.1198    2.7784   21.9367 Cl  0  0  0  0  0  0  0  0  0  0  0  0
   10.2982    1.1511   21.8572 C   0  0  0  0  0  0  0  0  0  0  0  0
    9.6204    0.3342   20.7874 C   0  0  0  0  0  0  0  0  0  0  0  0
    8.6039   -0.5808   21.3601 C   0  0  0  0  0  0  0  0  0  0  0  0
    8.8384   -1.4181   22.3485 N   0  0  0  0  0  0  0  0  0  0  0  0
    7.6322   -2.0053   22.5377 C   0  0  0  0  0  0  0  0  0  0  0  0
    7.4247   -3.0570   23.5586 C   0  0  0  0  0  0  0  0  0  0  0  0
    6.8787   -4.3921   23.1284 C   0  0  0  0  0  0  0  0  0  0  0  0
    8.3129   -4.2756   23.5677 C   0  0  0  0  0  0  0  0  0  0  0  0
    6.6733   -1.5876   21.7305 N   0  0  0  0  0  0  0  0  0  0  0  0
    7.3175   -0.6999   20.9314 N   0  0  0  0  0  0  0  0  0  0  0  0
    6.6412   -0.0048   19.8971 C   0  0  0  0  0  0  0  0  0  0  0  0
    5.4333    0.6429   20.1643 C   0  0  0  0  0  0  0  0  0  0  0  0
    4.8120    1.3137   19.1095 C   0  0  0  0  0  0  0  0  0  0  0  0
    5.3979    1.2965   17.8377 C   0  0  0  0  0  0  0  0  0  0  0  0
    6.5545    0.6692   17.5756 N   0  0  0  0  0  0  0  0  0  0  0  0
    7.1615    0.0456   18.5898 C   0  0  0  0  0  0  0  0  0  0  0  0
  1  2  1  0
  2  3  2  0
  3  4  1  0
  4  5  2  0
  5  6  1  0
  6  7  1  0
  6  8  2  0
  8  9  1  0
  9 10  1  0
 10 11  2  0
 11 12  1  0
 12 13  1  0
 13 14  1  0
 14 15  1  0
 12 16  2  0
 16 17  1  0
 17 18  1  0
 18 19  2  0
 19 20  1  0
 20 21  2  0
 21 22  1  0
 22 23  2  0
  8  2  1  0
 17 10  1  0
 23 18  1  0
 15 13  1  0
M  END
>  <cnnaffinity>  (111) 
-6.46479

>  <filename>  (111) 
Fc1cncc(Cl)c1Cc1nc(C2CC2)nn1-c1cccnc1

>  <enamine_id>  (111) 
PV-007076074690

$$$$

     RDKit          3D

 25 28  0  0  0  0  0  0  0  0999 V2000
   12.0273    0.4231   23.0355 C   0  0  0  0  0  0  0  0  0  0  0  0
   10.9482    1.4518   22.9488 C   0  0  0  0  0  0  0  0  0  0  0  0
   10.7896    2.4131   23.8490 N   0  0  0  0  0  0  0  0  0  0  0  0
    9.6454    3.0292   23.4810 N   0  0  0  0  0  0  0  0  0  0  0  0
    9.0670    2.4906   22.3752 C   0  0  0  0  0  0  0  0  0  0  0  0
    7.7423    2.8867   21.7998 C   0  0  0  0  0  0  0  0  0  0  0  0
    9.9099    1.4739   21.9826 C   0  0  0  0  0  0  0  0  0  0  0  0
    9.6217    0.4313   20.9256 C   0  0  0  0  0  0  0  0  0  0  0  0
    8.6117   -0.5778   21.3745 C   0  0  0  0  0  0  0  0  0  0  0  0
    8.8447   -1.4489   22.3338 N   0  0  0  0  0  0  0  0  0  0  0  0
    7.6381   -2.0527   22.5055 C   0  0  0  0  0  0  0  0  0  0  0  0
    7.4110   -3.0491   23.5943 C   0  0  2  0  0  0  0  0  0  0  0  0
    7.3775   -2.3565   24.9927 C   0  0  0  0  0  0  0  0  0  0  0  0
    7.3807   -3.3600   26.1253 C   0  0  0  0  0  0  0  0  0  0  0  0
    7.7439   -4.6377   25.9770 C   0  0  0  0  0  0  0  0  0  0  0  0
    8.1454   -5.2419   24.6480 C   0  0  0  0  0  0  0  0  0  0  0  0
    8.4788   -4.1718   23.5905 C   0  0  0  0  0  0  0  0  0  0  0  0
    6.6892   -1.6339   21.6930 N   0  0  0  0  0  0  0  0  0  0  0  0
    7.3266   -0.7008   20.9329 N   0  0  0  0  0  0  0  0  0  0  0  0
    6.6395   -0.0183   19.8908 C   0  0  0  0  0  0  0  0  0  0  0  0
    5.4300    0.6320   20.1527 C   0  0  0  0  0  0  0  0  0  0  0  0
    4.8042    1.3147   19.1030 C   0  0  0  0  0  0  0  0  0  0  0  0
    5.3948    1.3028   17.8328 C   0  0  0  0  0  0  0  0  0  0  0  0
    6.5442    0.6630   17.5680 N   0  0  0  0  0  0  0  0  0  0  0  0
    7.1502    0.0319   18.5816 C   0  0  0  0  0  0  0  0  0  0  0  0
  1  2  1  0
  2  3  2  0
  3  4  1  0
  4  5  1  0
  5  6  1  0
  5  7  2  0
  7  8  1  0
  8  9  1  0
  9 10  2  0
 10 11  1  0
 12 11  1  6
 12 13  1  0
 13 14  1  0
 14 15  2  0
 15 16  1  0
 16 17  1  0
 11 18  2  0
 18 19  1  0
 19 20  1  0
 20 21  2  0
 21 22  1  0
 22 23  2  0
 23 24  1  0
 24 25  2  0
  7  2  1  0
 19  9  1  0
 25 20  1  0
 17 12  1  0
M  END
>  <cnnaffinity>  (112) 
-6.4646

>  <filename>  (112) 
Cc1n[nH]c(C)c1Cc1nc(C2CC=CCC2)nn1-c1cccnc1

>  <enamine_id>  (112) 
PV-007173484402

$$$$

     RDKit          3D

 27 30  0  0  0  0  0  0  0  0999 V2000
    8.9603    2.6414   22.1968 C   0  0  0  0  0  0  0  0  0  0  0  0
   10.2593    1.9140   22.4523 C   0  0  0  0  0  0  0  0  0  0  0  0
   11.1806    2.4389   23.3722 C   0  0  0  0  0  0  0  0  0  0  0  0
   12.3956    1.7956   23.6075 C   0  0  0  0  0  0  0  0  0  0  0  0
   12.6725    0.5916   22.9619 C   0  0  0  0  0  0  0  0  0  0  0  0
   11.7501    0.0130   22.0808 C   0  0  0  0  0  0  0  0  0  0  0  0
   12.0386   -1.3541   21.5142 C   0  0  0  0  0  0  0  0  0  0  0  0
   10.5667    0.7169   21.7651 C   0  0  0  0  0  0  0  0  0  0  0  0
    9.5642    0.1438   20.7719 C   0  0  0  0  0  0  0  0  0  0  0  0
    8.4686   -0.6577   21.4199 C   0  0  0  0  0  0  0  0  0  0  0  0
    8.5760   -1.3115   22.5607 N   0  0  0  0  0  0  0  0  0  0  0  0
    7.4122   -1.9909   22.6657 C   0  0  0  0  0  0  0  0  0  0  0  0
    7.0764   -2.8298   23.8894 C   0  0  1  0  0  0  0  0  0  0  0  0
    5.9130   -3.7745   23.5918 C   0  0  0  0  0  0  0  0  0  0  0  0
    6.3456   -4.7458   22.4954 N   0  0  2  0  0  4  0  0  0  0  0  0
    5.2776   -5.7388   22.2151 C   0  0  0  0  0  0  0  0  0  0  0  0
    7.6054   -5.4856   22.9464 C   0  0  0  0  0  0  0  0  0  0  0  0
    8.6876   -4.5407   23.4652 C   0  0  0  0  0  0  0  0  0  0  0  0
    8.1703   -3.5997   24.4042 O   0  0  0  0  0  0  0  0  0  0  0  0
    6.5887   -1.8341   21.6370 N   0  0  0  0  0  0  0  0  0  0  0  0
    7.2523   -0.9335   20.8405 N   0  0  0  0  0  0  0  0  0  0  0  0
    6.5557   -0.2114   19.8136 C   0  0  0  0  0  0  0  0  0  0  0  0
    5.3799    0.4973   20.1013 C   0  0  0  0  0  0  0  0  0  0  0  0
    4.8077    1.2758   19.0892 C   0  0  0  0  0  0  0  0  0  0  0  0
    5.4142    1.2983   17.8245 C   0  0  0  0  0  0  0  0  0  0  0  0
    6.5170    0.5928   17.5296 N   0  0  0  0  0  0  0  0  0  0  0  0
    7.0697   -0.1392   18.5030 C   0  0  0  0  0  0  0  0  0  0  0  0
  1  2  1  0
  2  3  2  0
  3  4  1  0
  4  5  2  0
  5  6  1  0
  6  7  1  0
  6  8  2  0
  8  9  1  0
  9 10  1  0
 10 11  2  0
 11 12  1  0
 13 12  1  6
 13 14  1  0
 14 15  1  0
 15 16  1  1
 15 17  1  0
 17 18  1  0
 18 19  1  0
 12 20  2  0
 20 21  1  0
 21 22  1  0
 22 23  2  0
 23 24  1  0
 24 25  2  0
 25 26  1  0
 26 27  2  0
  8  2  1  0
 21 10  1  0
 27 22  1  0
 19 13  1  0
M  CHG  1  15   1
M  END
>  <cnnaffinity>  (113) 
-6.46142

>  <filename>  (113) 
Cc1cccc(C)c1Cc1nc(C2C[NH+](C)CCO2)nn1-c1cccnc1

>  <enamine_id>  (113) 
PV-006735881872

$$$$

     RDKit          3D

 26 28  0  0  0  0  0  0  0  0999 V2000
    9.0128    2.6565   22.2544 C   0  0  0  0  0  0  0  0  0  0  0  0
   10.3290    1.9355   22.4674 C   0  0  0  0  0  0  0  0  0  0  0  0
   11.2474    2.4144   23.4164 C   0  0  0  0  0  0  0  0  0  0  0  0
   12.4550    1.7510   23.6450 C   0  0  0  0  0  0  0  0  0  0  0  0
   12.7484    0.5877   22.9347 C   0  0  0  0  0  0  0  0  0  0  0  0
   11.8263    0.0510   22.0256 C   0  0  0  0  0  0  0  0  0  0  0  0
   12.1167   -1.2854   21.3847 C   0  0  0  0  0  0  0  0  0  0  0  0
   10.6377    0.7608   21.7444 C   0  0  0  0  0  0  0  0  0  0  0  0
    9.6135    0.1955   20.7688 C   0  0  0  0  0  0  0  0  0  0  0  0
    8.5156   -0.5724   21.4504 C   0  0  0  0  0  0  0  0  0  0  0  0
    8.6303   -1.2887   22.5564 N   0  0  0  0  0  0  0  0  0  0  0  0
    7.4188   -1.8944   22.6763 C   0  0  0  0  0  0  0  0  0  0  0  0
    7.1301   -2.9469   23.7098 C   0  0  0  0  0  0  0  0  0  0  0  0
    7.4326   -4.4033   23.2362 C   0  0  0  0  0  0  0  0  0  0  0  0
    7.2243   -5.3693   24.4160 C   0  0  0  0  0  0  0  0  0  0  0  0
    8.9088   -4.5336   22.8390 C   0  0  0  0  0  0  0  0  0  0  0  0
    6.5470   -4.7733   22.0015 C   0  0  0  0  0  0  0  0  0  0  0  0
    6.7382   -6.0971   21.5304 O   0  0  0  0  0  0  0  0  0  0  0  0
    6.5524   -1.5691   21.7360 N   0  0  0  0  0  0  0  0  0  0  0  0
    7.2620   -0.7396   20.9253 N   0  0  0  0  0  0  0  0  0  0  0  0
    6.5976   -0.0607   19.8662 C   0  0  0  0  0  0  0  0  0  0  0  0
    5.3987    0.6099   20.1213 C   0  0  0  0  0  0  0  0  0  0  0  0
    4.8006    1.3152   19.0756 C   0  0  0  0  0  0  0  0  0  0  0  0
    5.4092    1.3109   17.8132 C   0  0  0  0  0  0  0  0  0  0  0  0
    6.5446    0.6487   17.5538 N   0  0  0  0  0  0  0  0  0  0  0  0
    7.1199   -0.0225   18.5606 C   0  0  0  0  0  0  0  0  0  0  0  0
  1  2  1  0
  2  3  2  0
  3  4  1  0
  4  5  2  0
  5  6  1  0
  6  7  1  0
  6  8  2  0
  8  9  1  0
  9 10  1  0
 10 11  2  0
 11 12  1  0
 12 13  1  0
 13 14  1  0
 14 15  1  0
 14 16  1  0
 14 17  1  0
 17 18  1  0
 12 19  2  0
 19 20  1  0
 20 21  1  0
 21 22  2  0
 22 23  1  0
 23 24  2  0
 24 25  1  0
 25 26  2  0
  8  2  1  0
 20 10  1  0
 26 21  1  0
M  END
>  <cnnaffinity>  (114) 
-6.46141

>  <filename>  (114) 
Cc1cccc(C)c1Cc1nc(CC(C)(C)CO)nn1-c1cccnc1

>  <enamine_id>  (114) 
PV-006818110237

$$$$

     RDKit          3D

 24 27  0  0  0  0  0  0  0  0999 V2000
    8.6845    2.7167   22.1492 C   0  0  0  0  0  0  0  0  0  0  0  0
   10.0365    2.1027   22.4485 C   0  0  0  0  0  0  0  0  0  0  0  0
   10.8191    2.6616   23.4612 C   0  0  0  0  0  0  0  0  0  0  0  0
   12.0535    2.1073   23.7828 C   0  0  0  0  0  0  0  0  0  0  0  0
   12.5293    0.9856   23.1200 C   0  0  0  0  0  0  0  0  0  0  0  0
   11.7590    0.3751   22.1285 C   0  0  0  0  0  0  0  0  0  0  0  0
   12.1997   -0.9636   21.5861 C   0  0  0  0  0  0  0  0  0  0  0  0
   10.5345    0.9778   21.7514 C   0  0  0  0  0  0  0  0  0  0  0  0
    9.6455    0.3013   20.7348 C   0  0  0  0  0  0  0  0  0  0  0  0
    8.6321   -0.5835   21.3702 C   0  0  0  0  0  0  0  0  0  0  0  0
    8.8529   -1.4375   22.3509 N   0  0  0  0  0  0  0  0  0  0  0  0
    7.6369   -1.9987   22.5515 C   0  0  0  0  0  0  0  0  0  0  0  0
    7.4068   -3.0084   23.5966 C   0  0  2  0  0  0  0  0  0  0  0  0
    6.4089   -4.1210   23.3422 C   0  0  0  0  0  0  0  0  0  0  0  0
    6.0797   -3.0464   24.3239 C   0  0  1  0  0  0  0  0  0  0  0  0
    6.0153   -3.3660   25.7937 C   0  0  0  0  0  0  0  0  0  0  0  0
    6.6907   -1.5679   21.7272 N   0  0  0  0  0  0  0  0  0  0  0  0
    7.3417   -0.6815   20.9448 N   0  0  0  0  0  0  0  0  0  0  0  0
    6.6501   -0.0050   19.9014 C   0  0  0  0  0  0  0  0  0  0  0  0
    5.4359    0.6361   20.1634 C   0  0  0  0  0  0  0  0  0  0  0  0
    4.8090    1.3073   19.1100 C   0  0  0  0  0  0  0  0  0  0  0  0
    5.3977    1.2931   17.8396 C   0  0  0  0  0  0  0  0  0  0  0  0
    6.5531    0.6638   17.5763 N   0  0  0  0  0  0  0  0  0  0  0  0
    7.1611    0.0379   18.5910 C   0  0  0  0  0  0  0  0  0  0  0  0
  1  2  1  0
  2  3  2  0
  3  4  1  0
  4  5  2  0
  5  6  1  0
  6  7  1  0
  6  8  2  0
  8  9  1  0
  9 10  1  0
 10 11  2  0
 11 12  1  0
 13 12  1  6
 13 14  1  0
 14 15  1  0
 15 16  1  1
 12 17  2  0
 17 18  1  0
 18 19  1  0
 19 20  2  0
 20 21  1  0
 21 22  2  0
 22 23  1  0
 23 24  2  0
  8  2  1  0
 18 10  1  0
 24 19  1  0
 15 13  1  0
M  END
>  <cnnaffinity>  (115) 
-6.45794

>  <filename>  (115) 
Cc1cccc(C)c1Cc1nc([C@@H]2C[C@H]2C)nn1-c1cccnc1

>  <enamine_id>  (115) 
PV-007101110562

$$$$

     RDKit          3D

 24 27  0  0  0  0  0  0  0  0999 V2000
   12.1842   -0.3619   21.8267 F   0  0  0  0  0  0  0  0  0  0  0  0
   11.5651    0.7042   22.3566 C   0  0  0  0  0  0  0  0  0  0  0  0
   12.1583    1.3804   23.4234 C   0  0  0  0  0  0  0  0  0  0  0  0
   11.5872    2.4363   24.0140 N   0  0  0  0  0  0  0  0  0  0  0  0
   10.3950    2.8333   23.5546 C   0  0  0  0  0  0  0  0  0  0  0  0
    9.7428    2.1996   22.4912 C   0  0  0  0  0  0  0  0  0  0  0  0
    8.1786    2.7616   22.0050 Cl  0  0  0  0  0  0  0  0  0  0  0  0
   10.3346    1.1074   21.8437 C   0  0  0  0  0  0  0  0  0  0  0  0
    9.6197    0.3216   20.7760 C   0  0  0  0  0  0  0  0  0  0  0  0
    8.6029   -0.5947   21.3547 C   0  0  0  0  0  0  0  0  0  0  0  0
    8.8425   -1.4496   22.3257 N   0  0  0  0  0  0  0  0  0  0  0  0
    7.6358   -2.0300   22.5286 C   0  0  0  0  0  0  0  0  0  0  0  0
    7.4311   -3.0318   23.6104 C   0  0  0  0  0  0  0  0  0  0  0  0
    7.7829   -2.5192   25.0376 C   0  0  0  0  0  0  0  0  0  0  0  0
    9.0536   -3.8088   25.2640 S   0  0  0  0  0  0  0  0  0  0  0  0
    8.4340   -4.2186   23.5978 C   0  0  0  0  0  0  0  0  0  0  0  0
    6.6778   -1.6153   21.7274 N   0  0  0  0  0  0  0  0  0  0  0  0
    7.3131   -0.7053   20.9351 N   0  0  0  0  0  0  0  0  0  0  0  0
    6.6418   -0.0037   19.8994 C   0  0  0  0  0  0  0  0  0  0  0  0
    5.4333    0.6461   20.1648 C   0  0  0  0  0  0  0  0  0  0  0  0
    4.8117    1.3141   19.1085 C   0  0  0  0  0  0  0  0  0  0  0  0
    5.3992    1.2960   17.8373 C   0  0  0  0  0  0  0  0  0  0  0  0
    6.5567    0.6697   17.5759 N   0  0  0  0  0  0  0  0  0  0  0  0
    7.1625    0.0472   18.5913 C   0  0  0  0  0  0  0  0  0  0  0  0
  1  2  1  0
  2  3  2  0
  3  4  1  0
  4  5  2  0
  5  6  1  0
  6  7  1  0
  6  8  2  0
  8  9  1  0
  9 10  1  0
 10 11  2  0
 11 12  1  0
 12 13  1  0
 13 14  1  0
 14 15  1  0
 15 16  1  0
 12 17  2  0
 17 18  1  0
 18 19  1  0
 19 20  2  0
 20 21  1  0
 21 22  2  0
 22 23  1  0
 23 24  2  0
  8  2  1  0
 18 10  1  0
 24 19  1  0
 16 13  1  0
M  END
>  <cnnaffinity>  (116) 
-6.45775

>  <filename>  (116) 
Fc1cncc(Cl)c1Cc1nc(C2CSC2)nn1-c1cccnc1

>  <enamine_id>  (116) 
PV-006907195298

$$$$

     RDKit          3D

 26 28  0  0  0  0  0  0  0  0999 V2000
    9.4468    2.2932   21.2125 C   0  0  0  0  0  0  0  0  0  0  0  0
    9.6217    2.0344   22.6862 C   0  0  0  0  0  0  0  0  0  0  0  0
   10.8756    2.2183   23.2799 C   0  0  0  0  0  0  0  0  0  0  0  0
   11.0953    1.9155   24.6258 C   0  0  0  0  0  0  0  0  0  0  0  0
   10.0427    1.4325   25.3996 C   0  0  0  0  0  0  0  0  0  0  0  0
    8.7633    1.3445   24.8357 C   0  0  0  0  0  0  0  0  0  0  0  0
    7.4600    0.9100   25.9178 Cl  0  0  0  0  0  0  0  0  0  0  0  0
    8.5282    1.5988   23.4726 C   0  0  0  0  0  0  0  0  0  0  0  0
    7.2214    1.2053   22.7842 C   0  0  0  0  0  0  0  0  0  0  0  0
    7.3332   -0.1780   22.2106 C   0  0  0  0  0  0  0  0  0  0  0  0
    7.8749   -1.1870   22.8705 N   0  0  0  0  0  0  0  0  0  0  0  0
    7.9622   -2.1686   21.9460 C   0  0  0  0  0  0  0  0  0  0  0  0
    8.5091   -3.5132   22.2809 C   0  0  0  0  0  0  0  0  0  0  0  0
    7.5069   -4.4423   23.0230 C   0  0  0  0  0  0  0  0  0  0  0  0
    6.3406   -4.7636   22.0666 C   0  0  0  0  0  0  0  0  0  0  0  0
    6.9712   -3.7549   24.2915 C   0  0  0  0  0  0  0  0  0  0  0  0
    8.2401   -5.7260   23.4839 C   0  0  0  0  0  0  0  0  0  0  0  0
    8.6854   -6.5641   22.4383 O   0  0  0  0  0  0  0  0  0  0  0  0
    7.5108   -1.8441   20.7514 N   0  0  0  0  0  0  0  0  0  0  0  0
    7.0593   -0.5704   20.9278 N   0  0  0  0  0  0  0  0  0  0  0  0
    6.4399    0.1052   19.8388 C   0  0  0  0  0  0  0  0  0  0  0  0
    5.2508    0.8369   19.9748 C   0  0  0  0  0  0  0  0  0  0  0  0
    4.7304    1.4601   18.8321 C   0  0  0  0  0  0  0  0  0  0  0  0
    5.4200    1.3526   17.6206 C   0  0  0  0  0  0  0  0  0  0  0  0
    6.5526    0.6421   17.4833 N   0  0  0  0  0  0  0  0  0  0  0  0
    7.0317    0.0192   18.5644 C   0  0  0  0  0  0  0  0  0  0  0  0
  1  2  1  0
  2  3  2  0
  3  4  1  0
  4  5  2  0
  5  6  1  0
  6  7  1  0
  6  8  2  0
  8  9  1  0
  9 10  1  0
 10 11  2  0
 11 12  1  0
 12 13  1  0
 13 14  1  0
 14 15  1  0
 14 16  1  0
 14 17  1  0
 17 18  1  0
 12 19  2  0
 19 20  1  0
 20 21  1  0
 21 22  2  0
 22 23  1  0
 23 24  2  0
 24 25  1  0
 25 26  2  0
  8  2  1  0
 20 10  1  0
 26 21  1  0
M  END
>  <cnnaffinity>  (117) 
-6.45622

>  <filename>  (117) 
Cc1cccc(Cl)c1Cc1nc(CC(C)(C)CO)nn1-c1cccnc1

>  <enamine_id>  (117) 
PV-006727302851

$$$$

     RDKit          3D

 24 27  0  0  0  0  0  0  0  0999 V2000
   12.0739   -1.1916   21.3117 F   0  0  0  0  0  0  0  0  0  0  0  0
   11.8512   -0.0423   21.9710 C   0  0  0  0  0  0  0  0  0  0  0  0
   12.7551    0.3783   22.9355 C   0  0  0  0  0  0  0  0  0  0  0  0
   12.4548    1.5767   23.5920 C   0  0  0  0  0  0  0  0  0  0  0  0
   11.2893    2.2723   23.2518 C   0  0  0  0  0  0  0  0  0  0  0  0
   10.4187    1.8460   22.3200 N   0  0  0  0  0  0  0  0  0  0  0  0
   10.6899    0.7040   21.6841 C   0  0  0  0  0  0  0  0  0  0  0  0
    9.6639    0.2269   20.6930 C   0  0  0  0  0  0  0  0  0  0  0  0
    8.6328   -0.6115   21.3464 C   0  0  0  0  0  0  0  0  0  0  0  0
    8.8531   -1.4725   22.3132 N   0  0  0  0  0  0  0  0  0  0  0  0
    7.6231   -2.0013   22.5379 C   0  0  0  0  0  0  0  0  0  0  0  0
    7.3892   -2.9762   23.6356 C   0  0  2  0  0  0  0  0  0  0  0  0
    7.7437   -2.4553   25.0479 C   0  0  0  0  0  0  0  0  0  0  0  0
    8.1103   -3.7328   25.8104 C   0  0  0  0  0  0  0  0  0  0  0  0
    8.4195   -4.7188   24.8369 O   0  0  0  0  0  0  0  0  0  0  0  0
    8.2603   -4.2370   23.5177 C   0  0  0  0  0  0  0  0  0  0  0  0
    6.6741   -1.5618   21.7422 N   0  0  0  0  0  0  0  0  0  0  0  0
    7.3312   -0.6858   20.9361 N   0  0  0  0  0  0  0  0  0  0  0  0
    6.6506    0.0040   19.9009 C   0  0  0  0  0  0  0  0  0  0  0  0
    5.4360    0.6460   20.1645 C   0  0  0  0  0  0  0  0  0  0  0  0
    4.8113    1.3118   19.1090 C   0  0  0  0  0  0  0  0  0  0  0  0
    5.4003    1.2953   17.8377 C   0  0  0  0  0  0  0  0  0  0  0  0
    6.5591    0.6720   17.5784 N   0  0  0  0  0  0  0  0  0  0  0  0
    7.1668    0.0510   18.5935 C   0  0  0  0  0  0  0  0  0  0  0  0
  1  2  1  0
  2  3  2  0
  3  4  1  0
  4  5  2  0
  5  6  1  0
  6  7  2  0
  7  8  1  0
  8  9  1  0
  9 10  2  0
 10 11  1  0
 12 11  1  6
 12 13  1  0
 13 14  1  0
 14 15  1  0
 15 16  1  0
 11 17  2  0
 17 18  1  0
 18 19  1  0
 19 20  2  0
 20 21  1  0
 21 22  2  0
 22 23  1  0
 23 24  2  0
  7  2  1  0
 18  9  1  0
 24 19  1  0
 16 12  1  0
M  END
>  <cnnaffinity>  (118) 
-6.45475

>  <filename>  (118) 
Fc1cccnc1Cc1nc(C2CCOC2)nn1-c1cccnc1

>  <enamine_id>  (118) 
PV-006730150552

$$$$

     RDKit          3D

 24 27  0  0  0  0  0  0  0  0999 V2000
   12.2837   -1.2890   21.3193 C   0  0  0  0  0  0  0  0  0  0  0  0
   11.8467   -0.0406   21.9226 N   0  0  0  0  0  0  0  0  0  0  0  0
   12.4827    0.6672   22.9266 C   0  0  0  0  0  0  0  0  0  0  0  0
   11.6942    1.7539   23.1684 C   0  0  0  0  0  0  0  0  0  0  0  0
   10.5897    1.7379   22.3504 N   0  0  0  0  0  0  0  0  0  0  0  0
   10.7122    0.6560   21.6262 C   0  0  0  0  0  0  0  0  0  0  0  0
    9.6661    0.2110   20.6631 C   0  0  0  0  0  0  0  0  0  0  0  0
    8.6386   -0.6220   21.3320 C   0  0  0  0  0  0  0  0  0  0  0  0
    8.8704   -1.4706   22.3027 N   0  0  0  0  0  0  0  0  0  0  0  0
    7.6363   -1.9913   22.5520 C   0  0  0  0  0  0  0  0  0  0  0  0
    7.4107   -2.9891   23.6436 C   0  0  1  0  0  0  0  0  0  0  0  0
    8.1148   -4.3351   23.3347 C   0  0  0  0  0  0  0  0  0  0  0  0
    8.0968   -5.2850   24.5067 C   0  0  0  0  0  0  0  0  0  0  0  0
    7.8557   -4.8974   25.7624 C   0  0  0  0  0  0  0  0  0  0  0  0
    7.5103   -3.4734   26.1322 C   0  0  0  0  0  0  0  0  0  0  0  0
    7.8580   -2.4629   25.0259 C   0  0  0  0  0  0  0  0  0  0  0  0
    6.6833   -1.5522   21.7581 N   0  0  0  0  0  0  0  0  0  0  0  0
    7.3357   -0.6872   20.9365 N   0  0  0  0  0  0  0  0  0  0  0  0
    6.6500    0.0024   19.9004 C   0  0  0  0  0  0  0  0  0  0  0  0
    5.4361    0.6455   20.1666 C   0  0  0  0  0  0  0  0  0  0  0  0
    4.8122    1.3111   19.1090 C   0  0  0  0  0  0  0  0  0  0  0  0
    5.4020    1.2951   17.8377 C   0  0  0  0  0  0  0  0  0  0  0  0
    6.5615    0.6723   17.5775 N   0  0  0  0  0  0  0  0  0  0  0  0
    7.1663    0.0523   18.5943 C   0  0  0  0  0  0  0  0  0  0  0  0
  1  2  1  0
  2  3  1  0
  3  4  2  0
  4  5  1  0
  5  6  2  0
  6  7  1  0
  7  8  1  0
  8  9  2  0
  9 10  1  0
 11 10  1  6
 11 12  1  0
 12 13  1  0
 13 14  2  0
 14 15  1  0
 15 16  1  0
 10 17  2  0
 17 18  1  0
 18 19  1  0
 19 20  2  0
 20 21  1  0
 21 22  2  0
 22 23  1  0
 23 24  2  0
  6  2  1  0
 18  8  1  0
 24 19  1  0
 16 11  1  0
M  END
>  <cnnaffinity>  (119) 
-6.45426

>  <filename>  (119) 
Cn1ccnc1Cc1nc(C2CC=CCC2)nn1-c1cccnc1

>  <enamine_id>  (119) 
PV-006970767224

$$$$

     RDKit          3D

 26 29  0  0  0  0  0  0  0  0999 V2000
    9.2221   -1.6485   27.2149 C   0  0  0  0  0  0  0  0  0  0  0  0
    8.6615   -2.9098   26.5206 C   0  0  2  0  0  0  0  0  0  0  0  0
    9.4360   -3.1960   25.1965 C   0  0  0  0  0  0  0  0  0  0  0  0
    8.5757   -3.8061   24.0707 C   0  0  0  0  0  0  0  0  0  0  0  0
    7.3702   -2.8938   23.6918 C   0  0  2  0  0  0  0  0  0  0  0  0
    7.6617   -1.9825   22.5245 C   0  0  0  0  0  0  0  0  0  0  0  0
    6.7134   -1.5907   21.6956 N   0  0  0  0  0  0  0  0  0  0  0  0
    7.3533   -0.6824   20.9039 N   0  0  0  0  0  0  0  0  0  0  0  0
    6.6539   -0.0300   19.8548 C   0  0  0  0  0  0  0  0  0  0  0  0
    5.4409    0.6126   20.1272 C   0  0  0  0  0  0  0  0  0  0  0  0
    4.8208    1.3018   19.0828 C   0  0  0  0  0  0  0  0  0  0  0  0
    5.4118    1.3053   17.8144 C   0  0  0  0  0  0  0  0  0  0  0  0
    6.5496    0.6489   17.5357 N   0  0  0  0  0  0  0  0  0  0  0  0
    7.1485   -0.0035   18.5389 C   0  0  0  0  0  0  0  0  0  0  0  0
    8.6295   -0.5273   21.3532 C   0  0  0  0  0  0  0  0  0  0  0  0
    9.5058    0.6401   20.9891 C   0  0  0  0  0  0  0  0  0  0  0  0
    9.0533    2.0126   21.5877 C   0  0  0  0  0  0  0  0  0  0  0  0
    8.9162    2.0119   23.0930 C   0  0  0  0  0  0  0  0  0  0  0  0
    7.6859    2.0066   23.6141 N   0  0  0  0  0  0  0  0  0  0  0  0
    7.6022    1.9041   24.9416 C   0  0  0  0  0  0  0  0  0  0  0  0
    8.7074    1.8184   25.7654 C   0  0  0  0  0  0  0  0  0  0  0  0
    9.9340    1.8655   25.1199 C   0  0  0  0  0  0  0  0  0  0  0  0
   10.0559    1.9703   23.8013 N   0  0  0  0  0  0  0  0  0  0  0  0
    8.8695   -1.3867   22.3261 N   0  0  0  0  0  0  0  0  0  0  0  0
    6.8852   -2.0431   24.9158 C   0  0  0  0  0  0  0  0  0  0  0  0
    7.1359   -2.7711   26.2435 C   0  0  0  0  0  0  0  0  0  0  0  0
  2  1  1  6
  2  3  1  0
  3  4  1  0
  4  5  1  0
  5  6  1  6
  6  7  2  0
  7  8  1  0
  8  9  1  0
  9 10  2  0
 10 11  1  0
 11 12  2  0
 12 13  1  0
 13 14  2  0
  8 15  1  0
 15 16  1  0
 16 17  1  0
 17 18  1  0
 18 19  2  0
 19 20  1  0
 20 21  2  0
 21 22  1  0
 22 23  2  0
 15 24  2  0
  5 25  1  0
 25 26  1  0
 26  2  1  0
 24  6  1  0
 14  9  1  0
 23 18  1  0
M  END
>  <cnnaffinity>  (120) 
-6.45277

>  <filename>  (120) 
CC1CCC(c2nc(CCc3ncccn3)n(-c3cccnc3)n2)CC1

>  <enamine_id>  (120) 
PV-006874667989

$$$$

     RDKit          3D

 24 27  0  0  0  0  0  0  0  0999 V2000
   12.4232   -1.3210   21.4310 C   0  0  0  0  0  0  0  0  0  0  0  0
   11.9258   -0.0038   21.9709 C   0  0  0  0  0  0  0  0  0  0  0  0
   12.4313    0.8003   22.9428 C   0  0  0  0  0  0  0  0  0  0  0  0
   11.6331    1.8540   23.1687 O   0  0  0  0  0  0  0  0  0  0  0  0
   10.5445    1.7691   22.3368 N   0  0  0  0  0  0  0  0  0  0  0  0
   10.7115    0.6791   21.6354 C   0  0  0  0  0  0  0  0  0  0  0  0
    9.6540    0.2341   20.6840 C   0  0  0  0  0  0  0  0  0  0  0  0
    8.6284   -0.6006   21.3543 C   0  0  0  0  0  0  0  0  0  0  0  0
    8.8610   -1.4608   22.3220 N   0  0  0  0  0  0  0  0  0  0  0  0
    7.6380   -1.9993   22.5468 C   0  0  0  0  0  0  0  0  0  0  0  0
    7.3837   -2.9696   23.6582 C   0  0  1  0  0  0  0  0  0  0  0  0
    6.5447   -2.3117   24.7969 C   0  0  0  0  0  0  0  0  0  0  0  0
    6.0469   -3.3243   25.8007 C   0  0  0  0  0  0  0  0  0  0  0  0
    5.9957   -4.6378   25.5616 C   0  0  0  0  0  0  0  0  0  0  0  0
    6.5069   -5.2729   24.2867 C   0  0  0  0  0  0  0  0  0  0  0  0
    6.6826   -4.2536   23.1475 C   0  0  0  0  0  0  0  0  0  0  0  0
    6.6795   -1.5616   21.7459 N   0  0  0  0  0  0  0  0  0  0  0  0
    7.3304   -0.6788   20.9493 N   0  0  0  0  0  0  0  0  0  0  0  0
    6.6485   -0.0062   19.9023 C   0  0  0  0  0  0  0  0  0  0  0  0
    5.4341    0.6358   20.1609 C   0  0  0  0  0  0  0  0  0  0  0  0
    4.8066    1.3075   19.1090 C   0  0  0  0  0  0  0  0  0  0  0  0
    5.3959    1.2930   17.8396 C   0  0  0  0  0  0  0  0  0  0  0  0
    6.5506    0.6620   17.5797 N   0  0  0  0  0  0  0  0  0  0  0  0
    7.1594    0.0355   18.5916 C   0  0  0  0  0  0  0  0  0  0  0  0
  1  2  1  0
  2  3  2  0
  3  4  1  0
  4  5  1  0
  5  6  2  0
  6  7  1  0
  7  8  1  0
  8  9  2  0
  9 10  1  0
 11 10  1  6
 11 12  1  0
 12 13  1  0
 13 14  2  0
 14 15  1  0
 15 16  1  0
 10 17  2  0
 17 18  1  0
 18 19  1  0
 19 20  2  0
 20 21  1  0
 21 22  2  0
 22 23  1  0
 23 24  2  0
  6  2  1  0
 18  8  1  0
 24 19  1  0
 16 11  1  0
M  END
>  <cnnaffinity>  (121) 
-6.45248

>  <filename>  (121) 
Cc1conc1Cc1nc(C2CC=CCC2)nn1-c1cccnc1

>  <enamine_id>  (121) 
PV-007015086786

$$$$

     RDKit          3D

 26 28  0  0  0  0  0  0  0  0999 V2000
    6.3668   -5.9231   23.5206 C   0  0  0  0  0  0  0  0  0  0  0  0
    7.6298   -5.0804   23.7244 C   0  0  0  0  0  0  0  0  0  0  0  0
    8.7925   -5.9455   24.2304 C   0  0  0  0  0  0  0  0  0  0  0  0
    7.3533   -3.9238   24.6878 C   0  0  0  0  0  0  0  0  0  0  0  0
    7.8907   -4.6315   22.3838 O   0  0  0  0  0  0  0  0  0  0  0  0
    8.7158   -3.5162   22.0978 C   0  0  0  0  0  0  0  0  0  0  0  0
    8.0602   -2.1584   21.9533 C   0  0  0  0  0  0  0  0  0  0  0  0
    7.6290   -1.7926   20.7625 N   0  0  0  0  0  0  0  0  0  0  0  0
    7.1686   -0.5390   20.9521 N   0  0  0  0  0  0  0  0  0  0  0  0
    6.5272    0.1210   19.8751 C   0  0  0  0  0  0  0  0  0  0  0  0
    5.3115    0.7839   20.0537 C   0  0  0  0  0  0  0  0  0  0  0  0
    4.7405    1.4087   18.9418 C   0  0  0  0  0  0  0  0  0  0  0  0
    5.4042    1.3521   17.7141 C   0  0  0  0  0  0  0  0  0  0  0  0
    6.5593    0.6858   17.5342 N   0  0  0  0  0  0  0  0  0  0  0  0
    7.0934    0.0656   18.5887 C   0  0  0  0  0  0  0  0  0  0  0  0
    7.4240   -0.1593   22.2422 C   0  0  0  0  0  0  0  0  0  0  0  0
    7.2325    1.2179   22.8150 C   0  0  0  0  0  0  0  0  0  0  0  0
    8.4833    1.7094   23.5198 C   0  0  0  0  0  0  0  0  0  0  0  0
    9.6190    2.1624   22.8275 C   0  0  0  0  0  0  0  0  0  0  0  0
    9.6134    2.2697   21.1027 Cl  0  0  0  0  0  0  0  0  0  0  0  0
   10.7945    2.4987   23.5160 C   0  0  0  0  0  0  0  0  0  0  0  0
   10.9076    2.3433   24.8384 N   0  0  0  0  0  0  0  0  0  0  0  0
    9.8501    1.8856   25.5210 C   0  0  0  0  0  0  0  0  0  0  0  0
    8.6288    1.6067   24.9054 C   0  0  0  0  0  0  0  0  0  0  0  0
    7.5858    1.2358   25.6680 F   0  0  0  0  0  0  0  0  0  0  0  0
    7.9754   -1.1764   22.8922 N   0  0  0  0  0  0  0  0  0  0  0  0
  1  2  1  0
  2  3  1  0
  2  4  1  0
  2  5  1  0
  5  6  1  0
  6  7  1  0
  7  8  2  0
  8  9  1  0
  9 10  1  0
 10 11  2  0
 11 12  1  0
 12 13  2  0
 13 14  1  0
 14 15  2  0
  9 16  1  0
 16 17  1  0
 17 18  1  0
 18 19  2  0
 19 20  1  0
 19 21  1  0
 21 22  2  0
 22 23  1  0
 23 24  2  0
 24 25  1  0
 16 26  2  0
 26  7  1  0
 15 10  1  0
 24 18  1  0
M  END
>  <cnnaffinity>  (122) 
-6.45148

>  <filename>  (122) 
CC(C)(C)OCc1nc(Cc2c(F)cncc2Cl)n(-c2cccnc2)n1

>  <enamine_id>  (122) 
PV-007045592347

$$$$

     RDKit          3D

 24 26  0  0  0  0  0  0  0  0999 V2000
    8.9858   -5.7502   24.9996 C   0  0  0  0  0  0  0  0  0  0  0  0
    7.3541   -5.7323   24.2227 S   0  0  0  0  0  0  0  0  0  0  0  0
    7.6467   -4.4435   23.0011 C   0  0  0  0  0  0  0  0  0  0  0  0
    7.4074   -3.0403   23.5707 C   0  0  0  0  0  0  0  0  0  0  0  0
    7.6262   -1.9934   22.5473 C   0  0  0  0  0  0  0  0  0  0  0  0
    6.6700   -1.5692   21.7481 N   0  0  0  0  0  0  0  0  0  0  0  0
    7.3232   -0.7063   20.9313 N   0  0  0  0  0  0  0  0  0  0  0  0
    6.6435   -0.0072   19.8994 C   0  0  0  0  0  0  0  0  0  0  0  0
    5.4346    0.6428   20.1663 C   0  0  0  0  0  0  0  0  0  0  0  0
    4.8131    1.3119   19.1090 C   0  0  0  0  0  0  0  0  0  0  0  0
    5.3989    1.2963   17.8370 C   0  0  0  0  0  0  0  0  0  0  0  0
    6.5559    0.6690   17.5755 N   0  0  0  0  0  0  0  0  0  0  0  0
    7.1609    0.0454   18.5919 C   0  0  0  0  0  0  0  0  0  0  0  0
    8.6236   -0.6247   21.3387 C   0  0  0  0  0  0  0  0  0  0  0  0
    9.6479    0.2308   20.6892 C   0  0  0  0  0  0  0  0  0  0  0  0
   10.6596    0.7783   21.6683 C   0  0  0  0  0  0  0  0  0  0  0  0
   11.8850    0.1465   21.8879 C   0  0  0  0  0  0  0  0  0  0  0  0
   12.7633    0.5906   22.8806 C   0  0  0  0  0  0  0  0  0  0  0  0
   12.4114    1.6788   23.6813 C   0  0  0  0  0  0  0  0  0  0  0  0
   11.1802    2.3134   23.4875 C   0  0  0  0  0  0  0  0  0  0  0  0
   10.7099    3.6923   24.4125 Cl  0  0  0  0  0  0  0  0  0  0  0  0
   10.3142    1.8527   22.4933 C   0  0  0  0  0  0  0  0  0  0  0  0
    9.1213    2.4467   22.3466 F   0  0  0  0  0  0  0  0  0  0  0  0
    8.8541   -1.4784   22.3133 N   0  0  0  0  0  0  0  0  0  0  0  0
  1  2  1  0
  2  3  1  0
  3  4  1  0
  4  5  1  0
  5  6  2  0
  6  7  1  0
  7  8  1  0
  8  9  2  0
  9 10  1  0
 10 11  2  0
 11 12  1  0
 12 13  2  0
  7 14  1  0
 14 15  1  0
 15 16  1  0
 16 17  2  0
 17 18  1  0
 18 19  2  0
 19 20  1  0
 20 21  1  0
 20 22  2  0
 22 23  1  0
 14 24  2  0
 24  5  1  0
 13  8  1  0
 22 16  1  0
M  END
>  <cnnaffinity>  (123) 
-6.45064

>  <filename>  (123) 
CSCCc1nc(Cc2cccc(Cl)c2F)n(-c2cccnc2)n1

>  <enamine_id>  (123) 
PV-007067328669

$$$$

     RDKit          3D

 26 29  0  0  0  0  0  0  0  0999 V2000
   11.9294   -0.4334   25.3577 F   0  0  0  0  0  0  0  0  0  0  0  0
   11.6728    0.6898   24.6723 C   0  0  0  0  0  0  0  0  0  0  0  0
   12.7125    1.5667   24.4002 C   0  0  0  0  0  0  0  0  0  0  0  0
   12.4193    2.7853   23.7779 C   0  0  0  0  0  0  0  0  0  0  0  0
   11.1144    3.0461   23.3729 C   0  0  0  0  0  0  0  0  0  0  0  0
   10.8723    4.2266   22.7653 F   0  0  0  0  0  0  0  0  0  0  0  0
   10.0756    2.1143   23.5368 C   0  0  0  0  0  0  0  0  0  0  0  0
    8.7632    2.2657   22.7928 C   0  0  0  0  0  0  0  0  0  0  0  0
    8.9631    2.0215   21.2788 C   0  0  0  0  0  0  0  0  0  0  0  0
    9.4987    0.6156   20.9310 C   0  0  0  0  0  0  0  0  0  0  0  0
    8.6234   -0.4938   21.4118 C   0  0  0  0  0  0  0  0  0  0  0  0
    8.8664   -1.3464   22.3890 N   0  0  0  0  0  0  0  0  0  0  0  0
    7.6749   -1.9783   22.5604 C   0  0  0  0  0  0  0  0  0  0  0  0
    7.4405   -2.9406   23.6739 C   0  0  0  0  0  0  0  0  0  0  0  0
    8.6154   -3.9138   23.9434 C   0  0  0  0  0  0  0  0  0  0  0  0
    8.8807   -3.2569   25.6266 S   0  0  0  0  0  0  0  0  0  0  0  0
    7.4434   -2.2734   25.0829 C   0  0  0  0  0  0  0  0  0  0  0  0
    6.7267   -1.6077   21.7298 N   0  0  0  0  0  0  0  0  0  0  0  0
    7.3472   -0.6708   20.9584 N   0  0  0  0  0  0  0  0  0  0  0  0
    6.6556   -0.0146   19.9034 C   0  0  0  0  0  0  0  0  0  0  0  0
    5.4372    0.6227   20.1600 C   0  0  0  0  0  0  0  0  0  0  0  0
    4.8182    1.3013   19.1064 C   0  0  0  0  0  0  0  0  0  0  0  0
    5.4165    1.2961   17.8427 C   0  0  0  0  0  0  0  0  0  0  0  0
    6.5666    0.6562   17.5812 N   0  0  0  0  0  0  0  0  0  0  0  0
    7.1663    0.0195   18.5946 C   0  0  0  0  0  0  0  0  0  0  0  0
   10.3693    0.9406   24.2537 C   0  0  0  0  0  0  0  0  0  0  0  0
  1  2  1  0
  2  3  2  0
  3  4  1  0
  4  5  2  0
  5  6  1  0
  5  7  1  0
  7  8  1  0
  8  9  1  0
  9 10  1  0
 10 11  1  0
 11 12  2  0
 12 13  1  0
 13 14  1  0
 14 15  1  0
 15 16  1  0
 16 17  1  0
 13 18  2  0
 18 19  1  0
 19 20  1  0
 20 21  2  0
 21 22  1  0
 22 23  2  0
 23 24  1  0
 24 25  2  0
  7 26  2  0
 26  2  1  0
 19 11  1  0
 25 20  1  0
 17 14  1  0
M  END
>  <cnnaffinity>  (124) 
-6.45063

>  <filename>  (124) 
Fc1ccc(F)c(CCCc2nc(C3CSC3)nn2-c2cccnc2)c1

>  <enamine_id>  (124) 
PV-006908208218

$$$$

     RDKit          3D

 24 27  0  0  0  0  0  0  0  0999 V2000
   10.3995    3.6628   24.1411 Br  0  0  0  0  0  0  0  0  0  0  0  0
   10.7631    2.1009   23.0810 C   0  0  0  0  0  0  0  0  0  0  0  0
   11.9690    1.4028   23.2528 C   0  0  0  0  0  0  0  0  0  0  0  0
   12.3059    0.3273   22.5116 N   0  0  0  0  0  0  0  0  0  0  0  0
   11.4437   -0.0945   21.5735 C   0  0  0  0  0  0  0  0  0  0  0  0
   10.2133    0.5308   21.3617 C   0  0  0  0  0  0  0  0  0  0  0  0
    9.8461    1.6413   22.1301 C   0  0  0  0  0  0  0  0  0  0  0  0
    8.4861    2.2767   21.9447 C   0  0  0  0  0  0  0  0  0  0  0  0
    7.3724    1.4608   22.6341 C   0  0  0  0  0  0  0  0  0  0  0  0
    7.5235    0.0218   22.2484 C   0  0  0  0  0  0  0  0  0  0  0  0
    8.1274   -0.8493   22.9961 N   0  0  0  0  0  0  0  0  0  0  0  0
    8.3048   -1.9182   22.1320 C   0  0  0  0  0  0  0  0  0  0  0  0
    9.1071   -3.1298   22.4943 C   0  0  0  0  0  0  0  0  0  0  0  0
   10.5550   -2.8015   22.8903 C   0  0  0  0  0  0  0  0  0  0  0  0
   10.2973   -3.3292   24.2833 C   0  0  0  0  0  0  0  0  0  0  0  0
    8.8836   -3.7243   23.8845 C   0  0  0  0  0  0  0  0  0  0  0  0
    7.8228   -1.7530   20.9252 N   0  0  0  0  0  0  0  0  0  0  0  0
    7.2683   -0.5280   21.0042 N   0  0  0  0  0  0  0  0  0  0  0  0
    6.6338    0.0873   19.9345 C   0  0  0  0  0  0  0  0  0  0  0  0
    5.5141    0.8941   20.1397 C   0  0  0  0  0  0  0  0  0  0  0  0
    4.9171    1.4616   19.0181 C   0  0  0  0  0  0  0  0  0  0  0  0
    5.4577    1.2311   17.7452 C   0  0  0  0  0  0  0  0  0  0  0  0
    6.5379    0.4515   17.5464 N   0  0  0  0  0  0  0  0  0  0  0  0
    7.1039   -0.1185   18.6252 C   0  0  0  0  0  0  0  0  0  0  0  0
  1  2  1  0
  2  3  2  0
  3  4  1  0
  4  5  2  0
  5  6  1  0
  6  7  2  0
  7  8  1  0
  8  9  1  0
  9 10  1  0
 10 11  2  0
 11 12  1  0
 12 13  1  0
 13 14  1  0
 14 15  1  0
 15 16  1  0
 12 17  2  0
 17 18  1  0
 18 19  1  0
 19 20  2  0
 20 21  1  0
 21 22  2  0
 22 23  1  0
 23 24  2  0
  7  2  1  0
 18 10  1  0
 24 19  1  0
 16 13  1  0
M  END
>  <cnnaffinity>  (125) 
-6.44688

>  <filename>  (125) 
Brc1cnccc1CCc1nc(C2CCC2)nn1-c1cccnc1

>  <enamine_id>  (125) 
PV-006715950413

$$$$

     RDKit          3D

 24 27  0  0  0  0  0  0  0  0999 V2000
    9.2113    1.6840   20.9425 C   0  0  0  0  0  0  0  0  0  0  0  0
    8.6772    1.0837   22.2424 C   0  0  1  0  0  0  0  0  0  0  0  0
    7.6737    2.0567   22.9323 C   0  0  0  0  0  0  0  0  0  0  0  0
    7.3098    1.6255   24.3159 C   0  0  0  0  0  0  0  0  0  0  0  0
    7.8888    1.7847   25.5545 C   0  0  0  0  0  0  0  0  0  0  0  0
    7.2815    0.9737   26.4837 N   0  0  0  0  0  0  0  0  0  0  0  0
    6.3497    0.3268   25.8329 C   0  0  0  0  0  0  0  0  0  0  0  0
    6.3062    0.7073   24.5326 N   0  0  0  0  0  0  0  0  0  0  0  0
    8.1417   -0.3152   22.0515 C   0  0  0  0  0  0  0  0  0  0  0  0
    8.4245   -1.3511   22.8259 N   0  0  0  0  0  0  0  0  0  0  0  0
    7.8025   -2.3927   22.2137 C   0  0  0  0  0  0  0  0  0  0  0  0
    7.7127   -3.7520   22.8568 C   0  0  0  0  0  0  0  0  0  0  0  0
    7.5224   -4.9847   21.9418 C   0  0  0  0  0  0  0  0  0  0  0  0
    6.9850   -6.0771   22.8920 C   0  0  0  0  0  0  0  0  0  0  0  0
    6.2387   -5.3359   24.0341 C   0  0  0  0  0  0  0  0  0  0  0  0
    6.4807   -3.8333   23.7933 C   0  0  0  0  0  0  0  0  0  0  0  0
    7.1631   -2.0720   21.1041 N   0  0  0  0  0  0  0  0  0  0  0  0
    7.3615   -0.7324   21.0053 N   0  0  0  0  0  0  0  0  0  0  0  0
    6.6828   -0.0257   19.9594 C   0  0  0  0  0  0  0  0  0  0  0  0
    5.4910    0.6741   20.1820 C   0  0  0  0  0  0  0  0  0  0  0  0
    4.8907    1.3228   19.0972 C   0  0  0  0  0  0  0  0  0  0  0  0
    5.5067    1.2504   17.8452 C   0  0  0  0  0  0  0  0  0  0  0  0
    6.6268    0.5449   17.6165 N   0  0  0  0  0  0  0  0  0  0  0  0
    7.1813   -0.1001   18.6510 C   0  0  0  0  0  0  0  0  0  0  0  0
  2  1  1  6
  2  3  1  0
  3  4  1  0
  4  5  2  0
  5  6  1  0
  6  7  2  0
  7  8  1  0
  2  9  1  0
  9 10  2  0
 10 11  1  0
 11 12  1  0
 12 13  1  0
 13 14  1  0
 14 15  1  0
 15 16  1  0
 11 17  2  0
 17 18  1  0
 18 19  1  0
 19 20  2  0
 20 21  1  0
 21 22  2  0
 22 23  1  0
 23 24  2  0
  8  4  1  0
 18  9  1  0
 24 19  1  0
 16 12  1  0
M  END
>  <cnnaffinity>  (126) 
-6.44431

>  <filename>  (126) 
CC(Cc1cnc[nH]1)c1nc(C2CCCC2)nn1-c1cccnc1

>  <enamine_id>  (126) 
PV-007132738699

$$$$

     RDKit          3D

 24 27  0  0  0  0  0  0  0  0999 V2000
    9.5122    2.2549   21.0066 Cl  0  0  0  0  0  0  0  0  0  0  0  0
    9.6117    2.1372   22.7266 C   0  0  0  0  0  0  0  0  0  0  0  0
   10.8458    2.3856   23.3341 C   0  0  0  0  0  0  0  0  0  0  0  0
   10.9734    2.1938   24.7086 C   0  0  0  0  0  0  0  0  0  0  0  0
    9.8685    1.8053   25.4703 C   0  0  0  0  0  0  0  0  0  0  0  0
    8.6290    1.6136   24.8518 C   0  0  0  0  0  0  0  0  0  0  0  0
    8.4835    1.7385   23.4637 C   0  0  0  0  0  0  0  0  0  0  0  0
    7.2147    1.2279   22.7912 C   0  0  0  0  0  0  0  0  0  0  0  0
    7.4261   -0.1679   22.2509 C   0  0  0  0  0  0  0  0  0  0  0  0
    7.9383   -1.1691   22.9530 N   0  0  0  0  0  0  0  0  0  0  0  0
    8.1547   -2.1365   22.0247 C   0  0  0  0  0  0  0  0  0  0  0  0
    8.7559   -3.5060   22.2910 C   0  0  2  0  0  0  0  0  0  0  0  0
    7.9326   -4.4692   23.1850 C   0  0  0  0  0  0  0  0  0  0  0  0
    8.5476   -4.2372   24.5644 C   0  0  0  0  0  0  0  0  0  0  0  0
   10.0172   -3.9995   24.2274 C   0  0  0  0  0  0  0  0  0  0  0  0
   10.0392   -3.4371   22.9168 O   0  0  0  0  0  0  0  0  0  0  0  0
    7.7694   -1.8094   20.8028 N   0  0  0  0  0  0  0  0  0  0  0  0
    7.2629   -0.5638   20.9496 N   0  0  0  0  0  0  0  0  0  0  0  0
    6.5852    0.0632   19.8698 C   0  0  0  0  0  0  0  0  0  0  0  0
    5.3630    0.7117   20.0694 C   0  0  0  0  0  0  0  0  0  0  0  0
    4.7761    1.3554   18.9785 C   0  0  0  0  0  0  0  0  0  0  0  0
    5.4234    1.3175   17.7407 C   0  0  0  0  0  0  0  0  0  0  0  0
    6.5708    0.6497   17.5322 N   0  0  0  0  0  0  0  0  0  0  0  0
    7.1277    0.0201   18.5719 C   0  0  0  0  0  0  0  0  0  0  0  0
  1  2  1  0
  2  3  2  0
  3  4  1  0
  4  5  2  0
  5  6  1  0
  6  7  2  0
  7  8  1  0
  8  9  1  0
  9 10  2  0
 10 11  1  0
 12 11  1  1
 12 13  1  0
 13 14  1  0
 14 15  1  0
 15 16  1  0
 11 17  2  0
 17 18  1  0
 18 19  1  0
 19 20  2  0
 20 21  1  0
 21 22  2  0
 22 23  1  0
 23 24  2  0
  7  2  1  0
 18  9  1  0
 24 19  1  0
 16 12  1  0
M  END
>  <cnnaffinity>  (127) 
-6.44058

>  <filename>  (127) 
Clc1ccccc1Cc1nc(C2CCCO2)nn1-c1cccnc1

>  <enamine_id>  (127) 
PV-006749300681

$$$$

     RDKit          3D

 24 27  0  0  0  0  0  0  0  0999 V2000
    8.8073    2.7006   22.1989 C   0  0  0  0  0  0  0  0  0  0  0  0
   10.1471    2.0405   22.4599 C   0  0  0  0  0  0  0  0  0  0  0  0
   10.9754    2.5575   23.4646 C   0  0  0  0  0  0  0  0  0  0  0  0
   12.1985    1.9517   23.7505 C   0  0  0  0  0  0  0  0  0  0  0  0
   12.6114    0.8208   23.0517 C   0  0  0  0  0  0  0  0  0  0  0  0
   11.7984    0.2566   22.0575 C   0  0  0  0  0  0  0  0  0  0  0  0
   12.1981   -1.0700   21.4361 C   0  0  0  0  0  0  0  0  0  0  0  0
   10.5796    0.9013   21.7407 C   0  0  0  0  0  0  0  0  0  0  0  0
    9.6364    0.2711   20.7377 C   0  0  0  0  0  0  0  0  0  0  0  0
    8.6093   -0.5946   21.3741 C   0  0  0  0  0  0  0  0  0  0  0  0
    8.8458   -1.4520   22.3440 N   0  0  0  0  0  0  0  0  0  0  0  0
    7.6317   -2.0077   22.5612 C   0  0  0  0  0  0  0  0  0  0  0  0
    7.4158   -2.9818   23.6631 C   0  0  0  0  0  0  0  0  0  0  0  0
    8.3992   -4.1889   23.6501 C   0  0  0  0  0  0  0  0  0  0  0  0
    9.0579   -3.7489   25.2933 S   0  0  0  0  0  0  0  0  0  0  0  0
    7.8069   -2.4390   25.0738 C   0  0  0  0  0  0  0  0  0  0  0  0
    6.6748   -1.5914   21.7608 N   0  0  0  0  0  0  0  0  0  0  0  0
    7.3135   -0.6968   20.9568 N   0  0  0  0  0  0  0  0  0  0  0  0
    6.6366   -0.0169   19.9035 C   0  0  0  0  0  0  0  0  0  0  0  0
    5.4260    0.6358   20.1590 C   0  0  0  0  0  0  0  0  0  0  0  0
    4.8061    1.3108   19.1044 C   0  0  0  0  0  0  0  0  0  0  0  0
    5.3968    1.2956   17.8355 C   0  0  0  0  0  0  0  0  0  0  0  0
    6.5492    0.6603   17.5794 N   0  0  0  0  0  0  0  0  0  0  0  0
    7.1539    0.0315   18.5927 C   0  0  0  0  0  0  0  0  0  0  0  0
  1  2  1  0
  2  3  2  0
  3  4  1  0
  4  5  2  0
  5  6  1  0
  6  7  1  0
  6  8  2  0
  8  9  1  0
  9 10  1  0
 10 11  2  0
 11 12  1  0
 12 13  1  0
 13 14  1  0
 14 15  1  0
 15 16  1  0
 12 17  2  0
 17 18  1  0
 18 19  1  0
 19 20  2  0
 20 21  1  0
 21 22  2  0
 22 23  1  0
 23 24  2  0
  8  2  1  0
 18 10  1  0
 24 19  1  0
 16 13  1  0
M  END
>  <cnnaffinity>  (128) 
-6.44039

>  <filename>  (128) 
Cc1cccc(C)c1Cc1nc(C2CSC2)nn1-c1cccnc1

>  <enamine_id>  (128) 
PV-006767387346

$$$$

     RDKit          3D

 26 29  0  0  0  0  0  0  0  0999 V2000
    6.0773   -4.5419   25.6560 C   0  0  0  0  0  0  0  0  0  0  0  0
    6.1486   -3.2271   25.8680 C   0  0  0  0  0  0  0  0  0  0  0  0
    6.6502   -2.2385   24.8467 C   0  0  0  0  0  0  0  0  0  0  0  0
    7.4043   -2.9279   23.6709 C   0  0  2  0  0  0  0  0  0  0  0  0
    7.6528   -1.9555   22.5562 C   0  0  0  0  0  0  0  0  0  0  0  0
    6.7235   -1.5743   21.6997 N   0  0  0  0  0  0  0  0  0  0  0  0
    7.3663   -0.6369   20.9531 N   0  0  0  0  0  0  0  0  0  0  0  0
    6.6796    0.0149   19.8916 C   0  0  0  0  0  0  0  0  0  0  0  0
    5.4540    0.6388   20.1520 C   0  0  0  0  0  0  0  0  0  0  0  0
    4.8178    1.3066   19.1041 C   0  0  0  0  0  0  0  0  0  0  0  0
    5.4128    1.2977   17.8369 C   0  0  0  0  0  0  0  0  0  0  0  0
    6.5620    0.6585   17.5680 N   0  0  0  0  0  0  0  0  0  0  0  0
    7.1784    0.0344   18.5766 C   0  0  0  0  0  0  0  0  0  0  0  0
    8.6293   -0.4728   21.4340 C   0  0  0  0  0  0  0  0  0  0  0  0
    9.5310    0.6033   20.9331 C   0  0  0  0  0  0  0  0  0  0  0  0
    9.0160    2.0217   21.2500 C   0  0  0  0  0  0  0  0  0  0  0  0
    8.7707    2.2538   22.7595 C   0  0  0  0  0  0  0  0  0  0  0  0
   10.0196    2.0179   23.5691 C   0  0  0  0  0  0  0  0  0  0  0  0
   10.1692    0.9219   24.4458 C   0  0  0  0  0  0  0  0  0  0  0  0
   11.3383    0.6133   25.0447 N   0  0  0  0  0  0  0  0  0  0  0  0
   12.3586    1.4486   24.7654 C   0  0  0  0  0  0  0  0  0  0  0  0
   12.2043    2.5831   23.9476 C   0  0  0  0  0  0  0  0  0  0  0  0
   11.0418    2.8725   23.3464 N   0  0  0  0  0  0  0  0  0  0  0  0
    8.8462   -1.3153   22.4285 N   0  0  0  0  0  0  0  0  0  0  0  0
    6.6566   -4.2025   23.2100 C   0  0  0  0  0  0  0  0  0  0  0  0
    6.4961   -5.2057   24.3671 C   0  0  0  0  0  0  0  0  0  0  0  0
  1  2  2  0
  2  3  1  0
  3  4  1  0
  4  5  1  6
  5  6  2  0
  6  7  1  0
  7  8  1  0
  8  9  2  0
  9 10  1  0
 10 11  2  0
 11 12  1  0
 12 13  2  0
  7 14  1  0
 14 15  1  0
 15 16  1  0
 16 17  1  0
 17 18  1  0
 18 19  2  0
 19 20  1  0
 20 21  2  0
 21 22  1  0
 22 23  2  0
 14 24  2  0
  4 25  1  0
 25 26  1  0
 26  1  1  0
 24  5  1  0
 13  8  1  0
 23 18  1  0
M  END
>  <cnnaffinity>  (129) 
-6.43327

>  <filename>  (129) 
C1=CCC(c2nc(CCCc3cnccn3)n(-c3cccnc3)n2)CC1

>  <enamine_id>  (129) 
PV-006919005002

$$$$

     RDKit          3D

 27 30  0  0  0  0  0  0  0  0999 V2000
    7.3590   -4.4668   26.8477 C   0  0  0  0  0  0  0  0  0  0  0  0
    6.1413   -4.3408   25.9208 C   0  0  1  0  0  0  0  0  0  0  0  0
    5.7144   -2.8685   25.7481 C   0  0  0  0  0  0  0  0  0  0  0  0
    6.7144   -2.0239   24.9323 C   0  0  0  0  0  0  0  0  0  0  0  0
    7.3880   -2.8150   23.7635 C   0  0  2  0  0  0  0  0  0  0  0  0
    7.6654   -1.9250   22.5892 C   0  0  0  0  0  0  0  0  0  0  0  0
    6.7316   -1.5685   21.7248 N   0  0  0  0  0  0  0  0  0  0  0  0
    7.3728   -0.6754   20.9303 N   0  0  0  0  0  0  0  0  0  0  0  0
    6.6575    0.0006   19.8985 C   0  0  0  0  0  0  0  0  0  0  0  0
    5.4405    0.6380   20.1682 C   0  0  0  0  0  0  0  0  0  0  0  0
    4.8141    1.3081   19.1099 C   0  0  0  0  0  0  0  0  0  0  0  0
    5.4003    1.2965   17.8371 C   0  0  0  0  0  0  0  0  0  0  0  0
    6.5574    0.6713   17.5727 N   0  0  0  0  0  0  0  0  0  0  0  0
    7.1647    0.0495   18.5893 C   0  0  0  0  0  0  0  0  0  0  0  0
    8.6471   -0.5179   21.3876 C   0  0  0  0  0  0  0  0  0  0  0  0
    9.5213    0.6215   20.9694 C   0  0  0  0  0  0  0  0  0  0  0  0
    9.0449    2.0041   21.5256 C   0  0  0  0  0  0  0  0  0  0  0  0
    8.9010    2.0245   23.0275 C   0  0  0  0  0  0  0  0  0  0  0  0
    7.6851    1.8011   23.5402 N   0  0  0  0  0  0  0  0  0  0  0  0
    7.6030    1.6950   24.8667 C   0  0  0  0  0  0  0  0  0  0  0  0
    8.7029    1.8288   25.6898 C   0  0  0  0  0  0  0  0  0  0  0  0
    8.5686    1.7575   27.0197 F   0  0  0  0  0  0  0  0  0  0  0  0
    9.9220    2.0516   25.0679 C   0  0  0  0  0  0  0  0  0  0  0  0
   10.0245    2.1605   23.7440 N   0  0  0  0  0  0  0  0  0  0  0  0
    8.8740   -1.3369   22.4010 N   0  0  0  0  0  0  0  0  0  0  0  0
    6.5696   -4.0550   23.3636 C   0  0  0  0  0  0  0  0  0  0  0  0
    6.3868   -5.0269   24.5441 C   0  0  0  0  0  0  0  0  0  0  0  0
  2  1  1  1
  2  3  1  0
  3  4  1  0
  4  5  1  0
  5  6  1  6
  6  7  2  0
  7  8  1  0
  8  9  1  0
  9 10  2  0
 10 11  1  0
 11 12  2  0
 12 13  1  0
 13 14  2  0
  8 15  1  0
 15 16  1  0
 16 17  1  0
 17 18  1  0
 18 19  2  0
 19 20  1  0
 20 21  2  0
 21 22  1  0
 21 23  1  0
 23 24  2  0
 15 25  2  0
  5 26  1  0
 26 27  1  0
 27  2  1  0
 25  6  1  0
 14  9  1  0
 24 18  1  0
M  END
>  <cnnaffinity>  (130) 
-6.43135

>  <filename>  (130) 
CC1CCC(c2nc(CCc3ncc(F)cn3)n(-c3cccnc3)n2)CC1

>  <enamine_id>  (130) 
PV-007097848047

$$$$

     RDKit          3D

 26 29  0  0  0  0  0  0  0  0999 V2000
   11.9534   -0.0657   23.7881 C   0  0  0  0  0  0  0  0  0  0  0  0
   11.4490    1.3262   23.5404 C   0  0  0  0  0  0  0  0  0  0  0  0
   12.1956    2.3881   24.0353 C   0  0  0  0  0  0  0  0  0  0  0  0
   11.7029    3.6976   24.0134 C   0  0  0  0  0  0  0  0  0  0  0  0
   10.4605    3.9824   23.4409 C   0  0  0  0  0  0  0  0  0  0  0  0
    9.9135    5.3882   23.3939 C   0  0  0  0  0  0  0  0  0  0  0  0
    9.7298    2.9056   22.8774 C   0  0  0  0  0  0  0  0  0  0  0  0
    8.5021    3.2415   22.3640 O   0  0  0  0  0  0  0  0  0  0  0  0
    7.7264    2.3014   21.6435 C   0  0  0  0  0  0  0  0  0  0  0  0
    6.9898    1.3064   22.5867 C   0  0  0  0  0  0  0  0  0  0  0  0
    7.2064   -0.1289   22.2418 C   0  0  0  0  0  0  0  0  0  0  0  0
    7.8493   -1.0155   22.9749 N   0  0  0  0  0  0  0  0  0  0  0  0
    7.9982   -2.0733   22.1311 C   0  0  0  0  0  0  0  0  0  0  0  0
    8.8193   -3.2648   22.4869 C   0  0  0  0  0  0  0  0  0  0  0  0
    8.5244   -3.8353   23.9028 C   0  0  0  0  0  0  0  0  0  0  0  0
   10.0493   -3.0946   24.5799 S   0  0  0  0  0  0  0  0  0  0  0  0
   10.2881   -2.8421   22.7962 C   0  0  0  0  0  0  0  0  0  0  0  0
    7.4831   -1.9053   20.9337 N   0  0  0  0  0  0  0  0  0  0  0  0
    6.9333   -0.6587   21.0146 N   0  0  0  0  0  0  0  0  0  0  0  0
    6.3640   -0.0436   19.8678 C   0  0  0  0  0  0  0  0  0  0  0  0
    5.1967    0.7298   19.9313 C   0  0  0  0  0  0  0  0  0  0  0  0
    4.7836    1.3738   18.7616 C   0  0  0  0  0  0  0  0  0  0  0  0
    5.5311    1.2181   17.5909 C   0  0  0  0  0  0  0  0  0  0  0  0
    6.6319    0.4463   17.5193 N   0  0  0  0  0  0  0  0  0  0  0  0
    7.0232   -0.1771   18.6327 C   0  0  0  0  0  0  0  0  0  0  0  0
   10.2279    1.5973   22.8965 C   0  0  0  0  0  0  0  0  0  0  0  0
  1  2  1  0
  2  3  2  0
  3  4  1  0
  4  5  2  0
  5  6  1  0
  5  7  1  0
  7  8  1  0
  8  9  1  0
  9 10  1  0
 10 11  1  0
 11 12  2  0
 12 13  1  0
 13 14  1  0
 14 15  1  0
 15 16  1  0
 16 17  1  0
 13 18  2  0
 18 19  1  0
 19 20  1  0
 20 21  2  0
 21 22  1  0
 22 23  2  0
 23 24  1  0
 24 25  2  0
  7 26  2  0
 26  2  1  0
 19 11  1  0
 25 20  1  0
 17 14  1  0
M  END
>  <cnnaffinity>  (131) 
-6.42501

>  <filename>  (131) 
Cc1ccc(C)c(OCCc2nc(C3CSC3)nn2-c2cccnc2)c1

>  <enamine_id>  (131) 
PV-006907848772

$$$$

     RDKit          3D

 25 28  0  0  0  0  0  0  0  0999 V2000
    8.9863   -3.2259   25.2484 C   0  0  0  0  0  0  0  0  0  0  0  0
   10.0215   -2.8589   24.4865 C   0  0  0  0  0  0  0  0  0  0  0  0
   10.0803   -2.9893   22.9969 C   0  0  0  0  0  0  0  0  0  0  0  0
    8.7050   -3.3077   22.3606 C   0  0  2  0  0  0  0  0  0  0  0  0
    7.9986   -2.0045   22.0859 C   0  0  0  0  0  0  0  0  0  0  0  0
    7.6063   -1.7089   20.8635 N   0  0  0  0  0  0  0  0  0  0  0  0
    7.2126   -0.4129   20.9745 N   0  0  0  0  0  0  0  0  0  0  0  0
    6.5680    0.2072   19.8802 C   0  0  0  0  0  0  0  0  0  0  0  0
    5.3776    0.9218   20.0432 C   0  0  0  0  0  0  0  0  0  0  0  0
    4.8035    1.4859   18.9008 C   0  0  0  0  0  0  0  0  0  0  0  0
    5.4338    1.3191   17.6636 C   0  0  0  0  0  0  0  0  0  0  0  0
    6.5667    0.6091   17.5033 N   0  0  0  0  0  0  0  0  0  0  0  0
    7.1068    0.0514   18.5905 C   0  0  0  0  0  0  0  0  0  0  0  0
    7.4872    0.0371   22.2346 C   0  0  0  0  0  0  0  0  0  0  0  0
    7.5975    1.4997   22.5563 C   0  0  0  0  0  0  0  0  0  0  0  0
    8.5685    2.2712   21.6279 C   0  0  0  0  0  0  0  0  0  0  0  0
    9.9868    1.6676   21.5674 C   0  0  0  0  0  0  0  0  0  0  0  0
   10.6531    1.5576   22.9105 C   0  0  0  0  0  0  0  0  0  0  0  0
   10.7420    0.4473   23.7020 C   0  0  0  0  0  0  0  0  0  0  0  0
   11.4367    0.8553   24.7855 N   0  0  0  0  0  0  0  0  0  0  0  0
   11.7593    2.1446   24.6884 N   0  0  0  0  0  0  0  0  0  0  0  0
   11.2787    2.5777   23.5643 N   0  0  0  0  0  0  0  0  0  0  0  0
    7.8868   -0.9810   22.9803 N   0  0  0  0  0  0  0  0  0  0  0  0
    7.9232   -4.3212   23.2349 C   0  0  0  0  0  0  0  0  0  0  0  0
    7.7126   -3.7875   24.6590 C   0  0  0  0  0  0  0  0  0  0  0  0
  1  2  2  0
  2  3  1  0
  3  4  1  0
  4  5  1  1
  5  6  2  0
  6  7  1  0
  7  8  1  0
  8  9  2  0
  9 10  1  0
 10 11  2  0
 11 12  1  0
 12 13  2  0
  7 14  1  0
 14 15  1  0
 15 16  1  0
 16 17  1  0
 17 18  1  0
 18 19  2  0
 19 20  1  0
 20 21  1  0
 21 22  2  0
 14 23  2  0
  4 24  1  0
 24 25  1  0
 25  1  1  0
 23  5  1  0
 13  8  1  0
 22 18  1  0
M  END
>  <cnnaffinity>  (132) 
-6.42437

>  <filename>  (132) 
C1=CCC(c2nc(CCCc3c[nH]nn3)n(-c3cccnc3)n2)CC1

>  <enamine_id>  (132) 
PV-006997289366

$$$$

     RDKit          3D

 25 28  0  0  0  0  0  0  0  0999 V2000
   12.7551    1.5404   24.3348 C   0  0  0  0  0  0  0  0  0  0  0  0
   11.7708    0.6379   24.7291 C   0  0  0  0  0  0  0  0  0  0  0  0
   10.4556    0.8979   24.3431 C   0  0  0  0  0  0  0  0  0  0  0  0
   10.1642    2.0291   23.5700 C   0  0  0  0  0  0  0  0  0  0  0  0
    8.8322    2.2229   22.8705 C   0  0  0  0  0  0  0  0  0  0  0  0
    8.9704    2.0255   21.3404 C   0  0  0  0  0  0  0  0  0  0  0  0
    9.4894    0.6254   20.9519 C   0  0  0  0  0  0  0  0  0  0  0  0
    8.6084   -0.4868   21.4159 C   0  0  0  0  0  0  0  0  0  0  0  0
    8.8450   -1.3337   22.3974 N   0  0  0  0  0  0  0  0  0  0  0  0
    7.6570   -1.9909   22.5423 C   0  0  0  0  0  0  0  0  0  0  0  0
    7.4290   -2.9658   23.6576 C   0  0  0  0  0  0  0  0  0  0  0  0
    8.5934   -3.9471   23.8899 C   0  0  0  0  0  0  0  0  0  0  0  0
    8.4191   -4.4440   25.3329 C   0  0  0  0  0  0  0  0  0  0  0  0
    7.6806   -3.3187   26.0943 C   0  0  0  0  0  0  0  0  0  0  0  0
    7.2649   -2.2735   25.0379 C   0  0  0  0  0  0  0  0  0  0  0  0
    6.7197   -1.6212   21.6947 N   0  0  0  0  0  0  0  0  0  0  0  0
    7.3427   -0.6754   20.9423 N   0  0  0  0  0  0  0  0  0  0  0  0
    6.6504   -0.0125   19.8868 C   0  0  0  0  0  0  0  0  0  0  0  0
    5.4352    0.6274   20.1439 C   0  0  0  0  0  0  0  0  0  0  0  0
    4.8192    1.3090   19.0920 C   0  0  0  0  0  0  0  0  0  0  0  0
    5.4151    1.3080   17.8258 C   0  0  0  0  0  0  0  0  0  0  0  0
    6.5616    0.6635   17.5627 N   0  0  0  0  0  0  0  0  0  0  0  0
    7.1573    0.0212   18.5749 C   0  0  0  0  0  0  0  0  0  0  0  0
   11.0942    2.9692   23.3345 N   0  0  0  0  0  0  0  0  0  0  0  0
   12.3563    2.7085   23.6894 C   0  0  0  0  0  0  0  0  0  0  0  0
  1  2  2  0
  2  3  1  0
  3  4  2  0
  4  5  1  0
  5  6  1  0
  6  7  1  0
  7  8  1  0
  8  9  2  0
  9 10  1  0
 10 11  1  0
 11 12  1  0
 12 13  1  0
 13 14  1  0
 14 15  1  0
 10 16  2  0
 16 17  1  0
 17 18  1  0
 18 19  2  0
 19 20  1  0
 20 21  2  0
 21 22  1  0
 22 23  2  0
  4 24  1  0
 24 25  2  0
 25  1  1  0
 17  8  1  0
 23 18  1  0
 15 11  1  0
M  END
>  <cnnaffinity>  (133) 
-6.4228

>  <filename>  (133) 
c1ccc(CCCc2nc(C3CCCC3)nn2-c2cccnc2)nc1

>  <enamine_id>  (133) 
PV-007018710271

$$$$

     RDKit          3D

 26 29  0  0  0  0  0  0  0  0999 V2000
   12.2793    1.1480   24.4071 C   0  0  0  0  0  0  0  0  0  0  0  0
   10.7918    1.2533   24.2990 C   0  0  0  0  0  0  0  0  0  0  0  0
   10.2828    1.9387   23.2875 N   0  0  0  0  0  0  0  0  0  0  0  0
    8.9539    1.7944   23.3717 N   0  0  0  0  0  0  0  0  0  0  0  0
    8.1299    2.2919   22.2806 C   0  0  0  0  0  0  0  0  0  0  0  0
    8.6927    1.9226   20.8932 C   0  0  0  0  0  0  0  0  0  0  0  0
    9.2887    0.4985   20.7328 C   0  0  0  0  0  0  0  0  0  0  0  0
    8.4454   -0.5990   21.2988 C   0  0  0  0  0  0  0  0  0  0  0  0
    8.7525   -1.4413   22.2640 N   0  0  0  0  0  0  0  0  0  0  0  0
    7.5694   -2.0671   22.5245 C   0  0  0  0  0  0  0  0  0  0  0  0
    7.4705   -3.1013   23.6039 C   0  0  0  0  0  0  0  0  0  0  0  0
    7.8413   -2.6192   25.0243 C   0  0  0  0  0  0  0  0  0  0  0  0
    8.1088   -3.9077   25.8252 C   0  0  0  0  0  0  0  0  0  0  0  0
    8.4574   -4.9957   24.7786 C   0  0  0  0  0  0  0  0  0  0  0  0
    8.4355   -4.2913   23.4125 C   0  0  0  0  0  0  0  0  0  0  0  0
    6.5671   -1.7010   21.7434 N   0  0  0  0  0  0  0  0  0  0  0  0
    7.1483   -0.7860   20.9186 N   0  0  0  0  0  0  0  0  0  0  0  0
    6.4491   -0.1453   19.8533 C   0  0  0  0  0  0  0  0  0  0  0  0
    5.2875    0.6018   20.0888 C   0  0  0  0  0  0  0  0  0  0  0  0
    4.7698    1.3565   19.0299 C   0  0  0  0  0  0  0  0  0  0  0  0
    5.3966    1.3126   17.7815 C   0  0  0  0  0  0  0  0  0  0  0  0
    6.4676    0.5416   17.5291 N   0  0  0  0  0  0  0  0  0  0  0  0
    6.9657   -0.1704   18.5457 C   0  0  0  0  0  0  0  0  0  0  0  0
    8.5800    1.0703   24.4629 C   0  0  0  0  0  0  0  0  0  0  0  0
    7.1409    0.8267   24.8117 C   0  0  0  0  0  0  0  0  0  0  0  0
    9.7607    0.6900   25.0767 C   0  0  0  0  0  0  0  0  0  0  0  0
  1  2  1  0
  2  3  2  0
  3  4  1  0
  4  5  1  0
  5  6  1  0
  6  7  1  0
  7  8  1  0
  8  9  2  0
  9 10  1  0
 10 11  1  0
 11 12  1  0
 12 13  1  0
 13 14  1  0
 14 15  1  0
 10 16  2  0
 16 17  1  0
 17 18  1  0
 18 19  2  0
 19 20  1  0
 20 21  2  0
 21 22  1  0
 22 23  2  0
  4 24  1  0
 24 25  1  0
 24 26  2  0
 26  2  1  0
 17  8  1  0
 23 18  1  0
 15 11  1  0
M  END
>  <cnnaffinity>  (134) 
-6.4214

>  <filename>  (134) 
Cc1cc(C)n(CCCc2nc(C3CCCC3)nn2-c2cccnc2)n1

>  <enamine_id>  (134) 
PV-006774471557

$$$$

     RDKit          3D

 23 25  0  0  0  0  0  0  0  0999 V2000
    6.4611   -2.5013   24.6974 C   0  0  0  0  0  0  0  0  0  0  0  0
    7.3890   -3.0569   23.5913 C   0  0  0  0  0  0  0  0  0  0  0  0
    6.8578   -4.3830   23.0110 C   0  0  0  0  0  0  0  0  0  0  0  0
    7.5986   -2.0364   22.5112 C   0  0  0  0  0  0  0  0  0  0  0  0
    6.6592   -1.6307   21.6780 N   0  0  0  0  0  0  0  0  0  0  0  0
    7.3020   -0.6995   20.9292 N   0  0  0  0  0  0  0  0  0  0  0  0
    6.6274   -0.0227   19.8834 C   0  0  0  0  0  0  0  0  0  0  0  0
    5.4190    0.6281   20.1469 C   0  0  0  0  0  0  0  0  0  0  0  0
    4.7957    1.3129   19.1009 C   0  0  0  0  0  0  0  0  0  0  0  0
    5.3908    1.2975   17.8308 C   0  0  0  0  0  0  0  0  0  0  0  0
    6.5350    0.6510   17.5647 N   0  0  0  0  0  0  0  0  0  0  0  0
    7.1393    0.0178   18.5721 C   0  0  0  0  0  0  0  0  0  0  0  0
    8.5839   -0.5773   21.3768 C   0  0  0  0  0  0  0  0  0  0  0  0
    9.6455    0.3016   20.8112 C   0  0  0  0  0  0  0  0  0  0  0  0
   10.3319    1.1436   21.8675 C   0  0  0  0  0  0  0  0  0  0  0  0
    9.7101    2.2526   22.4736 C   0  0  0  0  0  0  0  0  0  0  0  0
    8.1351    2.7677   21.9465 Cl  0  0  0  0  0  0  0  0  0  0  0  0
   10.3234    2.9175   23.5474 C   0  0  0  0  0  0  0  0  0  0  0  0
   11.5072    2.5291   24.0453 N   0  0  0  0  0  0  0  0  0  0  0  0
   12.1290    1.4825   23.4795 C   0  0  0  0  0  0  0  0  0  0  0  0
   11.5741    0.7858   22.4029 C   0  0  0  0  0  0  0  0  0  0  0  0
   12.2481   -0.2614   21.8948 F   0  0  0  0  0  0  0  0  0  0  0  0
    8.7975   -1.4276   22.3586 N   0  0  0  0  0  0  0  0  0  0  0  0
  1  2  1  0
  2  3  1  0
  2  4  1  0
  4  5  2  0
  5  6  1  0
  6  7  1  0
  7  8  2  0
  8  9  1  0
  9 10  2  0
 10 11  1  0
 11 12  2  0
  6 13  1  0
 13 14  1  0
 14 15  1  0
 15 16  2  0
 16 17  1  0
 16 18  1  0
 18 19  2  0
 19 20  1  0
 20 21  2  0
 21 22  1  0
 13 23  2  0
 23  4  1  0
 12  7  1  0
 21 15  1  0
M  END
>  <cnnaffinity>  (135) 
-6.42103

>  <filename>  (135) 
CC(C)c1nc(Cc2c(F)cncc2Cl)n(-c2cccnc2)n1

>  <enamine_id>  (135) 
PV-007131602411

$$$$

     RDKit          3D

 25 27  0  0  0  0  0  0  0  0999 V2000
    6.1171   -5.9856   22.0178 C   0  0  0  0  0  0  0  0  0  0  0  0
    7.1741   -5.0644   22.5917 C   0  0  0  0  0  0  0  0  0  0  0  0
    6.5329   -4.0467   23.3494 O   0  0  0  0  0  0  0  0  0  0  0  0
    7.3847   -2.9614   23.6824 C   0  0  2  0  0  0  0  0  0  0  0  0
    6.7904   -2.2383   24.8917 C   0  0  0  0  0  0  0  0  0  0  0  0
    7.6114   -2.0120   22.5254 C   0  0  0  0  0  0  0  0  0  0  0  0
    6.6668   -1.5876   21.7096 N   0  0  0  0  0  0  0  0  0  0  0  0
    7.3200   -0.6879   20.9332 N   0  0  0  0  0  0  0  0  0  0  0  0
    6.6422   -0.0044   19.8885 C   0  0  0  0  0  0  0  0  0  0  0  0
    5.4288    0.6389   20.1518 C   0  0  0  0  0  0  0  0  0  0  0  0
    4.8035    1.3129   19.1001 C   0  0  0  0  0  0  0  0  0  0  0  0
    5.3947    1.2986   17.8305 C   0  0  0  0  0  0  0  0  0  0  0  0
    6.5458    0.6641   17.5650 N   0  0  0  0  0  0  0  0  0  0  0  0
    7.1540    0.0354   18.5771 C   0  0  0  0  0  0  0  0  0  0  0  0
    8.6117   -0.5840   21.3630 C   0  0  0  0  0  0  0  0  0  0  0  0
    9.6367    0.2968   20.7365 C   0  0  0  0  0  0  0  0  0  0  0  0
   10.5147    0.9719   21.7675 C   0  0  0  0  0  0  0  0  0  0  0  0
   11.7355    0.3682   22.1619 C   0  0  0  0  0  0  0  0  0  0  0  0
   12.1893   -0.9705   21.6197 C   0  0  0  0  0  0  0  0  0  0  0  0
   12.5086    0.9936   23.1444 C   0  0  0  0  0  0  0  0  0  0  0  0
   12.0342    2.1255   23.7976 C   0  0  0  0  0  0  0  0  0  0  0  0
   10.8005    2.6750   23.4578 C   0  0  0  0  0  0  0  0  0  0  0  0
   10.0190    2.1125   22.4425 C   0  0  0  0  0  0  0  0  0  0  0  0
    8.6645    2.7175   22.1372 C   0  0  0  0  0  0  0  0  0  0  0  0
    8.8260   -1.4344   22.3481 N   0  0  0  0  0  0  0  0  0  0  0  0
  1  2  1  0
  2  3  1  0
  3  4  1  0
  4  5  1  1
  4  6  1  0
  6  7  2  0
  7  8  1  0
  8  9  1  0
  9 10  2  0
 10 11  1  0
 11 12  2  0
 12 13  1  0
 13 14  2  0
  8 15  1  0
 15 16  1  0
 16 17  1  0
 17 18  2  0
 18 19  1  0
 18 20  1  0
 20 21  2  0
 21 22  1  0
 22 23  2  0
 23 24  1  0
 15 25  2  0
 25  6  1  0
 14  9  1  0
 23 17  1  0
M  END
>  <cnnaffinity>  (136) 
-6.41704

>  <filename>  (136) 
CCOC(C)c1nc(Cc2c(C)cccc2C)n(-c2cccnc2)n1

>  <enamine_id>  (136) 
PV-006862286242

$$$$

     RDKit          3D

 23 26  0  0  0  0  0  0  0  0999 V2000
   12.2820   -1.2353   21.3732 C   0  0  0  0  0  0  0  0  0  0  0  0
   11.8848    0.0625   21.9000 N   0  0  0  0  0  0  0  0  0  0  0  0
   12.4989    0.7198   22.9387 C   0  0  0  0  0  0  0  0  0  0  0  0
   11.7480    1.8212   23.2761 C   0  0  0  0  0  0  0  0  0  0  0  0
   10.6234    1.8177   22.4112 C   0  0  0  0  0  0  0  0  0  0  0  0
   10.7271    0.7253   21.5815 C   0  0  0  0  0  0  0  0  0  0  0  0
    9.6761    0.1892   20.6604 C   0  0  0  0  0  0  0  0  0  0  0  0
    8.6411   -0.6467   21.3408 C   0  0  0  0  0  0  0  0  0  0  0  0
    8.8553   -1.5051   22.3114 N   0  0  0  0  0  0  0  0  0  0  0  0
    7.6246   -2.0153   22.5473 C   0  0  0  0  0  0  0  0  0  0  0  0
    7.3856   -2.9919   23.6528 C   0  0  0  0  0  0  0  0  0  0  0  0
    6.3839   -2.4843   24.7194 C   0  0  0  0  0  0  0  0  0  0  0  0
    5.7674   -3.7507   25.3485 C   0  0  0  0  0  0  0  0  0  0  0  0
    6.0343   -4.9208   24.3606 C   0  0  0  0  0  0  0  0  0  0  0  0
    6.7850   -4.3251   23.1533 C   0  0  0  0  0  0  0  0  0  0  0  0
    6.6730   -1.5643   21.7467 N   0  0  0  0  0  0  0  0  0  0  0  0
    7.3364   -0.6927   20.9472 N   0  0  0  0  0  0  0  0  0  0  0  0
    6.6521   -0.0158   19.9016 C   0  0  0  0  0  0  0  0  0  0  0  0
    5.4366    0.6284   20.1595 C   0  0  0  0  0  0  0  0  0  0  0  0
    4.8051    1.3043   19.1103 C   0  0  0  0  0  0  0  0  0  0  0  0
    5.3979    1.2913   17.8410 C   0  0  0  0  0  0  0  0  0  0  0  0
    6.5490    0.6555   17.5801 N   0  0  0  0  0  0  0  0  0  0  0  0
    7.1580    0.0265   18.5895 C   0  0  0  0  0  0  0  0  0  0  0  0
  1  2  1  0
  2  3  1  0
  3  4  2  0
  4  5  1  0
  5  6  2  0
  6  7  1  0
  7  8  1  0
  8  9  2  0
  9 10  1  0
 10 11  1  0
 11 12  1  0
 12 13  1  0
 13 14  1  0
 14 15  1  0
 10 16  2  0
 16 17  1  0
 17 18  1  0
 18 19  2  0
 19 20  1  0
 20 21  2  0
 21 22  1  0
 22 23  2  0
  6  2  1  0
 17  8  1  0
 23 18  1  0
 15 11  1  0
M  END
>  <cnnaffinity>  (137) 
-6.41686

>  <filename>  (137) 
Cn1cccc1Cc1nc(C2CCCC2)nn1-c1cccnc1

>  <enamine_id>  (137) 
PV-007118146183

$$$$

     RDKit          3D

 25 28  0  0  0  0  0  0  0  0999 V2000
   13.3380    1.2535   24.2372 C   0  0  0  0  0  0  0  0  0  0  0  0
   12.3430    1.0340   23.1397 C   0  0  0  0  0  0  0  0  0  0  0  0
   11.2712    1.8651   22.9839 C   0  0  0  0  0  0  0  0  0  0  0  0
   10.2990    1.6881   21.9293 C   0  0  0  0  0  0  0  0  0  0  0  0
    9.3591    2.4356   21.6998 O   0  0  0  0  0  0  0  0  0  0  0  0
   10.4812    0.5075   21.1417 N   0  0  0  0  0  0  0  0  0  0  0  0
    9.3440    0.0394   20.3515 C   0  0  0  0  0  0  0  0  0  0  0  0
    8.3861   -0.8449   21.1113 C   0  0  0  0  0  0  0  0  0  0  0  0
    8.6414   -1.6256   22.1425 N   0  0  0  0  0  0  0  0  0  0  0  0
    7.4229   -2.1199   22.4696 C   0  0  0  0  0  0  0  0  0  0  0  0
    7.2258   -3.0474   23.6416 C   0  0  0  0  0  0  0  0  0  0  0  0
    6.5704   -4.3870   23.2390 C   0  0  0  0  0  0  0  0  0  0  0  0
    5.9852   -4.9776   24.5329 C   0  0  0  0  0  0  0  0  0  0  0  0
    5.7673   -3.7877   25.5004 C   0  0  0  0  0  0  0  0  0  0  0  0
    6.3198   -2.5278   24.7922 C   0  0  0  0  0  0  0  0  0  0  0  0
    6.4385   -1.7265   21.6722 N   0  0  0  0  0  0  0  0  0  0  0  0
    7.0637   -0.9190   20.7824 N   0  0  0  0  0  0  0  0  0  0  0  0
    6.3556   -0.2286   19.7615 C   0  0  0  0  0  0  0  0  0  0  0  0
    5.2114    0.5256   20.0462 C   0  0  0  0  0  0  0  0  0  0  0  0
    4.6940    1.3355   19.0279 C   0  0  0  0  0  0  0  0  0  0  0  0
    5.3058    1.3323   17.7672 C   0  0  0  0  0  0  0  0  0  0  0  0
    6.3591    0.5555   17.4711 N   0  0  0  0  0  0  0  0  0  0  0  0
    6.8575   -0.2091   18.4462 C   0  0  0  0  0  0  0  0  0  0  0  0
   11.6124   -0.2608   21.2462 C   0  0  0  0  0  0  0  0  0  0  0  0
   12.5311   -0.0381   22.2186 C   0  0  0  0  0  0  0  0  0  0  0  0
  1  2  1  0
  2  3  2  0
  3  4  1  0
  4  5  2  0
  4  6  1  0
  6  7  1  0
  7  8  1  0
  8  9  2  0
  9 10  1  0
 10 11  1  0
 11 12  1  0
 12 13  1  0
 13 14  1  0
 14 15  1  0
 10 16  2  0
 16 17  1  0
 17 18  1  0
 18 19  2  0
 19 20  1  0
 20 21  2  0
 21 22  1  0
 22 23  2  0
  6 24  1  0
 24 25  2  0
 25  2  1  0
 17  8  1  0
 23 18  1  0
 15 11  1  0
M  END
>  <cnnaffinity>  (138) 
-6.41507

>  <filename>  (138) 
Cc1ccn(Cc2nc(C3CCCC3)nn2-c2cccnc2)c(=O)c1

>  <enamine_id>  (138) 
PV-006891169368

$$$$

     RDKit          3D

 27 30  0  0  0  0  0  0  0  0999 V2000
    3.7990    0.0942   29.6464 C   0  0  0  0  0  0  0  0  0  0  0  0
    5.0115   -0.4847   28.9041 C   0  0  2  0  0  0  0  0  0  0  0  0
    5.2282    0.1857   27.5189 C   0  0  0  0  0  0  0  0  0  0  0  0
    4.5638   -0.6029   26.3797 C   0  0  0  0  0  0  0  0  0  0  0  0
    5.1934   -2.0248   26.2281 C   0  0  1  0  0  0  0  0  0  0  0  0
    6.2966   -2.0737   25.2008 C   0  0  0  0  0  0  0  0  0  0  0  0
    7.3585   -1.2868   25.2367 N   0  0  0  0  0  0  0  0  0  0  0  0
    8.0621   -1.6874   24.1424 N   0  0  0  0  0  0  0  0  0  0  0  0
    9.2982   -1.0917   23.8044 C   0  0  0  0  0  0  0  0  0  0  0  0
   10.3628   -1.8187   23.2892 C   0  0  0  0  0  0  0  0  0  0  0  0
   11.4537   -1.0881   22.8075 C   0  0  0  0  0  0  0  0  0  0  0  0
   11.5458    0.2471   22.9133 N   0  0  0  0  0  0  0  0  0  0  0  0
   10.5559    0.9260   23.4994 N   0  0  0  0  0  0  0  0  0  0  0  0
    9.4638    0.2971   23.9402 C   0  0  0  0  0  0  0  0  0  0  0  0
    7.3506   -2.6355   23.4728 C   0  0  0  0  0  0  0  0  0  0  0  0
    7.5978   -3.0859   22.0692 C   0  0  0  0  0  0  0  0  0  0  0  0
    6.8536   -2.2002   21.0447 C   0  0  0  0  0  0  0  0  0  0  0  0
    7.3596   -0.7518   20.9714 C   0  0  0  0  0  0  0  0  0  0  0  0
    6.6684    0.0415   19.8810 C   0  0  0  0  0  0  0  0  0  0  0  0
    5.4489    0.6968   20.1165 C   0  0  0  0  0  0  0  0  0  0  0  0
    4.8024    1.3387   19.0588 C   0  0  0  0  0  0  0  0  0  0  0  0
    5.3990    1.3171   17.7965 C   0  0  0  0  0  0  0  0  0  0  0  0
    6.5617    0.7003   17.5392 N   0  0  0  0  0  0  0  0  0  0  0  0
    7.1704    0.0899   18.5672 C   0  0  0  0  0  0  0  0  0  0  0  0
    6.2537   -2.9291   24.1474 N   0  0  0  0  0  0  0  0  0  0  0  0
    5.6933   -2.5831   27.5969 C   0  0  0  0  0  0  0  0  0  0  0  0
    4.8909   -2.0281   28.7786 C   0  0  0  0  0  0  0  0  0  0  0  0
  2  1  1  6
  2  3  1  0
  3  4  1  0
  4  5  1  0
  5  6  1  6
  6  7  2  0
  7  8  1  0
  8  9  1  0
  9 10  2  0
 10 11  1  0
 11 12  2  0
 12 13  1  0
 13 14  2  0
  8 15  1  0
 15 16  1  0
 16 17  1  0
 17 18  1  0
 18 19  1  0
 19 20  2  0
 20 21  1  0
 21 22  2  0
 22 23  1  0
 23 24  2  0
 15 25  2  0
  5 26  1  0
 26 27  1  0
 27  2  1  0
 25  6  1  0
 14  9  1  0
 24 19  1  0
M  END
>  <cnnaffinity>  (139) 
-6.41399

>  <filename>  (139) 
CC1CCC(c2nc(CCCc3cccnc3)n(-c3ccnnc3)n2)CC1

>  <enamine_id>  (139) 
PV-004135466647

$$$$

     RDKit          3D

 26 29  0  0  0  0  0  0  0  0999 V2000
    7.4432   -5.1787   27.5063 C   0  0  0  0  0  0  0  0  0  0  0  0
    7.2637   -4.4325   26.1837 C   0  0  1  0  0  0  0  0  0  0  0  0
    7.4394   -2.9084   26.3244 C   0  0  0  0  0  0  0  0  0  0  0  0
    7.1668   -2.1437   25.0019 C   0  0  0  0  0  0  0  0  0  0  0  0
    7.3172   -3.0391   23.7267 C   0  0  1  0  0  0  0  0  0  0  0  0
    7.5421   -2.1711   22.5280 C   0  0  0  0  0  0  0  0  0  0  0  0
    6.6112   -1.7634   21.6896 N   0  0  0  0  0  0  0  0  0  0  0  0
    7.2733   -0.8391   20.9326 N   0  0  0  0  0  0  0  0  0  0  0  0
    6.6080   -0.1323   19.8899 C   0  0  0  0  0  0  0  0  0  0  0  0
    5.4070    0.5418   20.1379 C   0  0  0  0  0  0  0  0  0  0  0  0
    4.8386    1.2857   19.0998 C   0  0  0  0  0  0  0  0  0  0  0  0
    5.4629    1.2998   17.8474 C   0  0  0  0  0  0  0  0  0  0  0  0
    6.5888    0.6155   17.5893 N   0  0  0  0  0  0  0  0  0  0  0  0
    7.1420   -0.0793   18.5900 C   0  0  0  0  0  0  0  0  0  0  0  0
    8.5468   -0.7162   21.4079 C   0  0  0  0  0  0  0  0  0  0  0  0
    9.4860    0.3956   21.1273 C   0  0  0  0  0  0  0  0  0  0  0  0
    9.1564    1.7121   21.8734 C   0  0  2  0  0  0  0  0  0  0  0  0
   10.3295    2.6798   21.7462 C   0  0  0  0  0  0  0  0  0  0  0  0
    8.7672    1.5391   23.2854 N   0  0  0  0  0  0  0  0  0  0  0  0
    7.5074    1.7835   23.8081 C   0  0  0  0  0  0  0  0  0  0  0  0
    7.6565    1.8266   25.1683 C   0  0  0  0  0  0  0  0  0  0  0  0
    8.9604    1.5700   25.5095 N   0  0  0  0  0  0  0  0  0  0  0  0
    9.5854    1.3758   24.3756 C   0  0  0  0  0  0  0  0  0  0  0  0
    8.7632   -1.5978   22.3547 N   0  0  0  0  0  0  0  0  0  0  0  0
    8.4890   -4.0225   23.9352 C   0  0  0  0  0  0  0  0  0  0  0  0
    8.2186   -4.9963   25.1015 C   0  0  0  0  0  0  0  0  0  0  0  0
  2  1  1  1
  2  3  1  0
  3  4  1  0
  4  5  1  0
  5  6  1  6
  6  7  2  0
  7  8  1  0
  8  9  1  0
  9 10  2  0
 10 11  1  0
 11 12  2  0
 12 13  1  0
 13 14  2  0
  8 15  1  0
 15 16  1  0
 16 17  1  0
 17 18  1  1
 17 19  1  0
 19 20  1  0
 20 21  2  0
 21 22  1  0
 22 23  2  0
 15 24  2  0
  5 25  1  0
 25 26  1  0
 26  2  1  0
 24  6  1  0
 14  9  1  0
 23 19  1  0
M  END
>  <cnnaffinity>  (140) 
-6.41333

>  <filename>  (140) 
CC1CCC(c2nc(CC(C)n3ccnc3)n(-c3cccnc3)n2)CC1

>  <enamine_id>  (140) 
PV-007001707403

$$$$

     RDKit          3D

 26 29  0  0  0  0  0  0  0  0999 V2000
    3.2824   -2.8915   25.2338 C   0  0  0  0  0  0  0  0  0  0  0  0
    4.7543   -3.2835   24.9959 C   0  0  2  0  0  0  0  0  0  0  0  0
    5.7253   -2.1375   25.3777 C   0  0  0  0  0  0  0  0  0  0  0  0
    7.1997   -2.5042   25.1252 C   0  0  0  0  0  0  0  0  0  0  0  0
    7.4708   -3.0470   23.6903 C   0  0  2  0  0  0  0  0  0  0  0  0
    7.5832   -1.9678   22.6246 C   0  0  0  0  0  0  0  0  0  0  0  0
    6.6922   -1.6328   21.7037 N   0  0  0  0  0  0  0  0  0  0  0  0
    7.3468   -0.7091   20.9448 N   0  0  0  0  0  0  0  0  0  0  0  0
    6.6572   -0.0508   19.8783 C   0  0  0  0  0  0  0  0  0  0  0  0
    5.4555    0.6192   20.1345 C   0  0  0  0  0  0  0  0  0  0  0  0
    4.8477    1.3171   19.0838 C   0  0  0  0  0  0  0  0  0  0  0  0
    5.4426    1.2981   17.8192 C   0  0  0  0  0  0  0  0  0  0  0  0
    6.5629    0.6115   17.5487 N   0  0  0  0  0  0  0  0  0  0  0  0
    7.1446   -0.0535   18.5584 C   0  0  0  0  0  0  0  0  0  0  0  0
    8.5889   -0.5032   21.4818 C   0  0  0  0  0  0  0  0  0  0  0  0
    9.6090    0.5024   21.0488 C   0  0  0  0  0  0  0  0  0  0  0  0
    9.6394    1.7571   21.9469 C   0  0  0  0  0  0  0  0  0  0  0  0
    8.2587    2.4294   22.0487 C   0  0  0  0  0  0  0  0  0  0  0  0
    8.2157    3.6332   22.9337 C   0  0  0  0  0  0  0  0  0  0  0  0
    7.8630    3.7373   24.2550 C   0  0  0  0  0  0  0  0  0  0  0  0
    8.0402    5.0511   24.5386 N   0  0  0  0  0  0  0  0  0  0  0  0
    8.4708    5.7241   23.4710 N   0  0  0  0  0  0  0  0  0  0  0  0
    8.5773    4.8746   22.5012 N   0  0  0  0  0  0  0  0  0  0  0  0
    8.7577   -1.2920   22.5242 N   0  0  0  0  0  0  0  0  0  0  0  0
    6.4704   -4.1749   23.3511 C   0  0  0  0  0  0  0  0  0  0  0  0
    5.0151   -3.7438   23.5499 C   0  0  0  0  0  0  0  0  0  0  0  0
  2  1  1  6
  2  3  1  0
  3  4  1  0
  4  5  1  0
  5  6  1  6
  6  7  2  0
  7  8  1  0
  8  9  1  0
  9 10  2  0
 10 11  1  0
 11 12  2  0
 12 13  1  0
 13 14  2  0
  8 15  1  0
 15 16  1  0
 16 17  1  0
 17 18  1  0
 18 19  1  0
 19 20  2  0
 20 21  1  0
 21 22  1  0
 22 23  2  0
 15 24  2  0
  5 25  1  0
 25 26  1  0
 26  2  1  0
 24  6  1  0
 14  9  1  0
 23 19  1  0
M  END
>  <cnnaffinity>  (141) 
-6.41328

>  <filename>  (141) 
CC1CCC(c2nc(CCCc3c[nH]nn3)n(-c3cccnc3)n2)CC1

>  <enamine_id>  (141) 
PV-007067203074

$$$$

     RDKit          3D

 25 28  0  0  0  0  0  0  0  0999 V2000
   12.3421   -0.2249   25.1220 F   0  0  0  0  0  0  0  0  0  0  0  0
   11.9394    0.8806   24.4810 C   0  0  0  0  0  0  0  0  0  0  0  0
   12.8873    1.8388   24.1536 C   0  0  0  0  0  0  0  0  0  0  0  0
   12.4608    3.0520   23.6143 C   0  0  0  0  0  0  0  0  0  0  0  0
   11.1120    3.2236   23.3189 C   0  0  0  0  0  0  0  0  0  0  0  0
   10.7230    4.4075   22.8069 F   0  0  0  0  0  0  0  0  0  0  0  0
   10.1645    2.1972   23.4978 C   0  0  0  0  0  0  0  0  0  0  0  0
    8.8187    2.2719   22.8076 C   0  0  0  0  0  0  0  0  0  0  0  0
    8.9733    2.0308   21.2884 C   0  0  0  0  0  0  0  0  0  0  0  0
    9.4997    0.6239   20.9371 C   0  0  0  0  0  0  0  0  0  0  0  0
    8.6164   -0.4685   21.4364 C   0  0  0  0  0  0  0  0  0  0  0  0
    8.8479   -1.3118   22.4225 N   0  0  0  0  0  0  0  0  0  0  0  0
    7.6715   -1.9872   22.5379 C   0  0  0  0  0  0  0  0  0  0  0  0
    7.4659   -3.0473   23.5555 C   0  0  0  0  0  0  0  0  0  0  0  0
    8.4425   -4.1902   23.6595 C   0  0  0  0  0  0  0  0  0  0  0  0
    7.0573   -4.4340   23.1306 C   0  0  0  0  0  0  0  0  0  0  0  0
    6.7307   -1.6101   21.6945 N   0  0  0  0  0  0  0  0  0  0  0  0
    7.3519   -0.6538   20.9571 N   0  0  0  0  0  0  0  0  0  0  0  0
    6.6607    0.0034   19.9013 C   0  0  0  0  0  0  0  0  0  0  0  0
    5.4395    0.6340   20.1565 C   0  0  0  0  0  0  0  0  0  0  0  0
    4.8175    1.3078   19.1015 C   0  0  0  0  0  0  0  0  0  0  0  0
    5.4147    1.3002   17.8362 C   0  0  0  0  0  0  0  0  0  0  0  0
    6.5644    0.6609   17.5750 N   0  0  0  0  0  0  0  0  0  0  0  0
    7.1664    0.0286   18.5899 C   0  0  0  0  0  0  0  0  0  0  0  0
   10.5908    1.0354   24.1667 C   0  0  0  0  0  0  0  0  0  0  0  0
  1  2  1  0
  2  3  2  0
  3  4  1  0
  4  5  2  0
  5  6  1  0
  5  7  1  0
  7  8  1  0
  8  9  1  0
  9 10  1  0
 10 11  1  0
 11 12  2  0
 12 13  1  0
 13 14  1  0
 14 15  1  0
 15 16  1  0
 13 17  2  0
 17 18  1  0
 18 19  1  0
 19 20  2  0
 20 21  1  0
 21 22  2  0
 22 23  1  0
 23 24  2  0
  7 25  2  0
 25  2  1  0
 18 11  1  0
 24 19  1  0
 16 14  1  0
M  END
>  <cnnaffinity>  (142) 
-6.40955

>  <filename>  (142) 
Fc1ccc(F)c(CCCc2nc(C3CC3)nn2-c2cccnc2)c1

>  <enamine_id>  (142) 
PV-006847045787

$$$$

     RDKit          3D

 23 25  0  0  0  0  0  0  0  0999 V2000
    6.5681   -4.8558   22.3793 C   0  0  0  0  0  0  0  0  0  0  0  0
    7.8522   -4.4563   23.1020 C   0  0  0  0  0  0  0  0  0  0  0  0
    8.7100   -3.5548   22.1999 C   0  0  0  0  0  0  0  0  0  0  0  0
    8.1502   -2.1949   21.9545 C   0  0  0  0  0  0  0  0  0  0  0  0
    7.6785   -1.8443   20.7793 N   0  0  0  0  0  0  0  0  0  0  0  0
    7.2381   -0.5791   20.9800 N   0  0  0  0  0  0  0  0  0  0  0  0
    6.5841    0.0817   19.9098 C   0  0  0  0  0  0  0  0  0  0  0  0
    5.3713    0.7504   20.0987 C   0  0  0  0  0  0  0  0  0  0  0  0
    4.7921    1.3775   18.9926 C   0  0  0  0  0  0  0  0  0  0  0  0
    5.4394    1.3182   17.7555 C   0  0  0  0  0  0  0  0  0  0  0  0
    6.5853    0.6388   17.5619 N   0  0  0  0  0  0  0  0  0  0  0  0
    7.1250    0.0162   18.6122 C   0  0  0  0  0  0  0  0  0  0  0  0
    7.5192   -0.2100   22.2707 C   0  0  0  0  0  0  0  0  0  0  0  0
    7.2860    1.1319   22.9195 C   0  0  0  0  0  0  0  0  0  0  0  0
    8.5627    1.7050   23.5350 C   0  0  0  0  0  0  0  0  0  0  0  0
    9.5801    2.2491   22.7348 C   0  0  0  0  0  0  0  0  0  0  0  0
    9.2963    2.4151   21.0292 Cl  0  0  0  0  0  0  0  0  0  0  0  0
   10.8281    2.6338   23.2397 C   0  0  0  0  0  0  0  0  0  0  0  0
   11.0938    2.4298   24.5936 C   0  0  0  0  0  0  0  0  0  0  0  0
   10.1032    1.9233   25.4367 C   0  0  0  0  0  0  0  0  0  0  0  0
    8.8536    1.6113   24.9055 C   0  0  0  0  0  0  0  0  0  0  0  0
    7.8838    1.1940   25.7403 F   0  0  0  0  0  0  0  0  0  0  0  0
    8.0853   -1.2272   22.9021 N   0  0  0  0  0  0  0  0  0  0  0  0
  1  2  1  0
  2  3  1  0
  3  4  1  0
  4  5  2  0
  5  6  1  0
  6  7  1  0
  7  8  2  0
  8  9  1  0
  9 10  2  0
 10 11  1  0
 11 12  2  0
  6 13  1  0
 13 14  1  0
 14 15  1  0
 15 16  2  0
 16 17  1  0
 16 18  1  0
 18 19  2  0
 19 20  1  0
 20 21  2  0
 21 22  1  0
 13 23  2  0
 23  4  1  0
 12  7  1  0
 21 15  1  0
M  END
>  <cnnaffinity>  (143) 
-6.40839

>  <filename>  (143) 
CCCc1nc(Cc2c(F)cccc2Cl)n(-c2cccnc2)n1

>  <enamine_id>  (143) 
PV-007041925235

$$$$

     RDKit          3D

 23 26  0  0  0  0  0  0  0  0999 V2000
   12.3349   -1.3824   21.5598 C   0  0  0  0  0  0  0  0  0  0  0  0
   11.8568   -0.0570   22.0521 C   0  0  0  0  0  0  0  0  0  0  0  0
   12.3709    0.7288   23.0282 C   0  0  0  0  0  0  0  0  0  0  0  0
   11.6227    1.8236   23.2116 O   0  0  0  0  0  0  0  0  0  0  0  0
   10.5573    1.7763   22.3363 N   0  0  0  0  0  0  0  0  0  0  0  0
   10.6993    0.6732   21.6541 C   0  0  0  0  0  0  0  0  0  0  0  0
    9.6596    0.2339   20.6789 C   0  0  0  0  0  0  0  0  0  0  0  0
    8.6363   -0.6183   21.3318 C   0  0  0  0  0  0  0  0  0  0  0  0
    8.8650   -1.4664   22.3075 N   0  0  0  0  0  0  0  0  0  0  0  0
    7.6383   -1.9873   22.5564 C   0  0  0  0  0  0  0  0  0  0  0  0
    7.3854   -2.9583   23.6727 C   0  0  0  0  0  0  0  0  0  0  0  0
    7.6732   -2.3440   25.0650 C   0  0  0  0  0  0  0  0  0  0  0  0
    9.1519   -2.6542   25.3699 C   0  0  0  0  0  0  0  0  0  0  0  0
    9.5459   -3.8571   24.4845 C   0  0  0  0  0  0  0  0  0  0  0  0
    8.3164   -4.1916   23.6099 C   0  0  0  0  0  0  0  0  0  0  0  0
    6.6819   -1.5499   21.7605 N   0  0  0  0  0  0  0  0  0  0  0  0
    7.3342   -0.6888   20.9340 N   0  0  0  0  0  0  0  0  0  0  0  0
    6.6488    0.0014   19.9004 C   0  0  0  0  0  0  0  0  0  0  0  0
    5.4356    0.6451   20.1677 C   0  0  0  0  0  0  0  0  0  0  0  0
    4.8128    1.3109   19.1084 C   0  0  0  0  0  0  0  0  0  0  0  0
    5.4026    1.2958   17.8358 C   0  0  0  0  0  0  0  0  0  0  0  0
    6.5602    0.6709   17.5742 N   0  0  0  0  0  0  0  0  0  0  0  0
    7.1631    0.0513   18.5925 C   0  0  0  0  0  0  0  0  0  0  0  0
  1  2  1  0
  2  3  2  0
  3  4  1  0
  4  5  1  0
  5  6  2  0
  6  7  1  0
  7  8  1  0
  8  9  2  0
  9 10  1  0
 10 11  1  0
 11 12  1  0
 12 13  1  0
 13 14  1  0
 14 15  1  0
 10 16  2  0
 16 17  1  0
 17 18  1  0
 18 19  2  0
 19 20  1  0
 20 21  2  0
 21 22  1  0
 22 23  2  0
  6  2  1  0
 17  8  1  0
 23 18  1  0
 15 11  1  0
M  END
>  <cnnaffinity>  (144) 
-6.40675

>  <filename>  (144) 
Cc1conc1Cc1nc(C2CCCC2)nn1-c1cccnc1

>  <enamine_id>  (144) 
PV-006745849465

$$$$

     RDKit          3D

 24 26  0  0  0  0  0  0  0  0999 V2000
    7.0687   -4.9659   21.7793 C   0  0  0  0  0  0  0  0  0  0  0  0
    7.8685   -4.5005   23.0024 C   0  0  0  0  0  0  0  0  0  0  0  0
    7.4369   -3.1295   23.5582 C   0  0  2  0  0  0  0  0  0  0  0  0
    6.1457   -3.3169   24.1326 O   0  0  0  0  0  0  0  0  0  0  0  0
    7.5758   -2.0483   22.5005 C   0  0  0  0  0  0  0  0  0  0  0  0
    6.6430   -1.6192   21.6728 N   0  0  0  0  0  0  0  0  0  0  0  0
    7.3032   -0.6995   20.9248 N   0  0  0  0  0  0  0  0  0  0  0  0
    6.6377   -0.0097   19.8789 C   0  0  0  0  0  0  0  0  0  0  0  0
    5.4296    0.6372   20.1438 C   0  0  0  0  0  0  0  0  0  0  0  0
    4.8010    1.3169   19.0981 C   0  0  0  0  0  0  0  0  0  0  0  0
    5.3896    1.3007   17.8261 C   0  0  0  0  0  0  0  0  0  0  0  0
    6.5375    0.6607   17.5607 N   0  0  0  0  0  0  0  0  0  0  0  0
    7.1488    0.0321   18.5679 C   0  0  0  0  0  0  0  0  0  0  0  0
    8.5874   -0.5947   21.3707 C   0  0  0  0  0  0  0  0  0  0  0  0
    9.6423    0.2941   20.8029 C   0  0  0  0  0  0  0  0  0  0  0  0
   10.3454    1.1193   21.8600 C   0  0  0  0  0  0  0  0  0  0  0  0
    9.7442    2.2294   22.4815 C   0  0  0  0  0  0  0  0  0  0  0  0
    8.1673    2.7632   21.9786 Cl  0  0  0  0  0  0  0  0  0  0  0  0
   10.3768    2.8801   23.5527 C   0  0  0  0  0  0  0  0  0  0  0  0
   11.5646    2.4783   24.0325 N   0  0  0  0  0  0  0  0  0  0  0  0
   12.1651    1.4297   23.4510 C   0  0  0  0  0  0  0  0  0  0  0  0
   11.5897    0.7441   22.3784 C   0  0  0  0  0  0  0  0  0  0  0  0
   12.2375   -0.3141   21.8602 F   0  0  0  0  0  0  0  0  0  0  0  0
    8.7919   -1.4589   22.3429 N   0  0  0  0  0  0  0  0  0  0  0  0
  1  2  1  0
  2  3  1  0
  3  4  1  6
  3  5  1  0
  5  6  2  0
  6  7  1  0
  7  8  1  0
  8  9  2  0
  9 10  1  0
 10 11  2  0
 11 12  1  0
 12 13  2  0
  7 14  1  0
 14 15  1  0
 15 16  1  0
 16 17  2  0
 17 18  1  0
 17 19  1  0
 19 20  2  0
 20 21  1  0
 21 22  2  0
 22 23  1  0
 14 24  2  0
 24  5  1  0
 13  8  1  0
 22 16  1  0
M  END
>  <cnnaffinity>  (145) 
-6.40449

>  <filename>  (145) 
CCC(O)c1nc(Cc2c(F)cncc2Cl)n(-c2cccnc2)n1

>  <enamine_id>  (145) 
PV-006994155135

$$$$

     RDKit          3D

 26 29  0  0  0  0  0  0  0  0999 V2000
   11.9548    1.5660   21.9174 F   0  0  0  0  0  0  0  0  0  0  0  0
   11.4451    1.4038   23.1477 C   0  0  0  0  0  0  0  0  0  0  0  0
   12.5757    0.9134   24.6341 C   0  0  0  0  0  0  0  0  0  0  0  0
   12.2887    0.7235   24.5534 C   0  0  0  0  0  0  0  0  0  0  0  0
   11.0816    0.8205   25.6372 C   0  0  0  0  0  0  0  0  0  0  0  0
    9.9565    1.2546   24.9162 C   0  0  0  0  0  0  0  0  0  0  0  0
    8.3625    1.3557   25.5792 Cl  0  0  0  0  0  0  0  0  0  0  0  0
   10.1519    1.5785   23.4801 C   0  0  0  0  0  0  0  0  0  0  0  0
    9.0695    1.9782   22.7774 O   0  0  0  0  0  0  0  0  0  0  0  0
    9.0063    1.9310   21.3446 C   0  0  0  0  0  0  0  0  0  0  0  0
    9.3570    0.5592   20.7351 C   0  0  0  0  0  0  0  0  0  0  0  0
    8.5020   -0.5379   21.2649 C   0  0  0  0  0  0  0  0  0  0  0  0
    8.7864   -1.3419   22.2674 N   0  0  0  0  0  0  0  0  0  0  0  0
    7.6301   -2.0343   22.4504 C   0  0  0  0  0  0  0  0  0  0  0  0
    7.3961   -2.9876   23.5770 C   0  0  0  0  0  0  0  0  0  0  0  0
    8.6454   -3.7220   24.1255 C   0  0  0  0  0  0  0  0  0  0  0  0
    8.4290   -3.0053   25.7908 S   0  0  0  0  0  0  0  0  0  0  0  0
    6.9933   -2.2927   24.9189 C   0  0  0  0  0  0  0  0  0  0  0  0
    6.6666   -1.7329   21.6068 N   0  0  0  0  0  0  0  0  0  0  0  0
    7.2364   -0.7854   20.8162 N   0  0  0  0  0  0  0  0  0  0  0  0
    6.5165   -0.1352   19.7773 C   0  0  0  0  0  0  0  0  0  0  0  0
    5.3548    0.5886   20.0652 C   0  0  0  0  0  0  0  0  0  0  0  0
    4.7667    1.3241   19.0313 C   0  0  0  0  0  0  0  0  0  0  0  0
    5.3391    1.2802   17.7539 C   0  0  0  0  0  0  0  0  0  0  0  0
    6.4146    0.5334   17.4576 N   0  0  0  0  0  0  0  0  0  0  0  0
    6.9798   -0.1632   18.4488 C   0  0  0  0  0  0  0  0  0  0  0  0
  1  2  1  0
  2  3  2  0
  3  4  1  0
  4  5  2  0
  5  6  1  0
  6  7  1  0
  6  8  2  0
  8  9  1  0
  9 10  1  0
 10 11  1  0
 11 12  1  0
 12 13  2  0
 13 14  1  0
 14 15  1  0
 15 16  1  0
 16 17  1  0
 17 18  1  0
 14 19  2  0
 19 20  1  0
 20 21  1  0
 21 22  2  0
 22 23  1  0
 23 24  2  0
 24 25  1  0
 25 26  2  0
  8  2  1  0
 20 12  1  0
 26 21  1  0
 18 15  1  0
M  END
>  <cnnaffinity>  (146) 
-6.40373

>  <filename>  (146) 
Fc1cccc(Cl)c1OCCc1nc(C2CSC2)nn1-c1cccnc1

>  <enamine_id>  (146) 
PV-007100852350

$$$$

     RDKit          3D

 25 28  0  0  0  0  0  0  0  0999 V2000
    4.8781    1.7384   23.9876 C   0  0  0  0  0  0  0  0  0  0  0  0
    6.2345    1.6047   24.5930 C   0  0  0  0  0  0  0  0  0  0  0  0
    6.3458    1.4827   25.9060 N   0  0  0  0  0  0  0  0  0  0  0  0
    7.6648    1.3360   26.1418 N   0  0  0  0  0  0  0  0  0  0  0  0
    8.0636    1.0503   27.5051 C   0  0  0  0  0  0  0  0  0  0  0  0
    8.4032    1.3958   24.9952 C   0  0  0  0  0  0  0  0  0  0  0  0
    9.8898    1.2143   24.8962 C   0  0  0  0  0  0  0  0  0  0  0  0
    7.4971    1.5567   23.9569 C   0  0  0  0  0  0  0  0  0  0  0  0
    7.7939    1.3814   22.4796 C   0  0  0  0  0  0  0  0  0  0  0  0
    7.8371   -0.0627   22.0497 C   0  0  0  0  0  0  0  0  0  0  0  0
    8.4660   -1.0202   22.7060 N   0  0  0  0  0  0  0  0  0  0  0  0
    8.2009   -2.1351   21.9880 C   0  0  0  0  0  0  0  0  0  0  0  0
    8.7160   -3.4768   22.4276 C   0  0  0  0  0  0  0  0  0  0  0  0
    8.7308   -3.7599   23.9566 C   0  0  0  0  0  0  0  0  0  0  0  0
    8.6446   -5.3010   24.1022 C   0  0  0  0  0  0  0  0  0  0  0  0
    8.3135   -5.8720   22.7037 C   0  0  0  0  0  0  0  0  0  0  0  0
    7.9526   -4.6701   21.8246 C   0  0  0  0  0  0  0  0  0  0  0  0
    7.5228   -1.9176   20.8718 N   0  0  0  0  0  0  0  0  0  0  0  0
    7.2719   -0.5844   20.9201 N   0  0  0  0  0  0  0  0  0  0  0  0
    6.5649    0.0359   19.8500 C   0  0  0  0  0  0  0  0  0  0  0  0
    5.3665    0.7292   20.0619 C   0  0  0  0  0  0  0  0  0  0  0  0
    4.7744    1.3763   18.9696 C   0  0  0  0  0  0  0  0  0  0  0  0
    5.4021    1.3083   17.7232 C   0  0  0  0  0  0  0  0  0  0  0  0
    6.5249    0.6001   17.5040 N   0  0  0  0  0  0  0  0  0  0  0  0
    7.0750   -0.0380   18.5410 C   0  0  0  0  0  0  0  0  0  0  0  0
  1  2  1  0
  2  3  2  0
  3  4  1  0
  4  5  1  0
  4  6  1  0
  6  7  1  0
  6  8  2  0
  8  9  1  0
  9 10  1  0
 10 11  2  0
 11 12  1  0
 12 13  1  0
 13 14  1  0
 14 15  1  0
 15 16  1  0
 16 17  1  0
 12 18  2  0
 18 19  1  0
 19 20  1  0
 20 21  2  0
 21 22  1  0
 22 23  2  0
 23 24  1  0
 24 25  2  0
  8  2  1  0
 19 10  1  0
 25 20  1  0
 17 13  1  0
M  END
>  <cnnaffinity>  (147) 
-6.40359

>  <filename>  (147) 
Cc1nn(C)c(C)c1Cc1nc(C2CCCC2)nn1-c1cccnc1

>  <enamine_id>  (147) 
PV-006725843135

$$$$

     RDKit          3D

 24 27  0  0  0  0  0  0  0  0999 V2000
   10.4061   -0.1186   26.4815 Br  0  0  0  0  0  0  0  0  0  0  0  0
    9.5172    0.9188   25.1416 C   0  0  0  0  0  0  0  0  0  0  0  0
    8.2004    0.8039   24.7951 C   0  0  0  0  0  0  0  0  0  0  0  0
    8.0090    1.6310   23.7014 N   0  0  0  0  0  0  0  0  0  0  0  0
    6.9413    1.3706   22.7108 C   0  0  0  0  0  0  0  0  0  0  0  0
    7.1634   -0.0260   22.1913 C   0  0  0  0  0  0  0  0  0  0  0  0
    7.6326   -0.9734   22.9500 N   0  0  0  0  0  0  0  0  0  0  0  0
    7.9883   -1.9674   22.0658 C   0  0  0  0  0  0  0  0  0  0  0  0
    8.7136   -3.1953   22.5740 C   0  0  2  0  0  0  0  0  0  0  0  0
    7.8531   -3.8867   23.6439 C   0  0  0  0  0  0  0  0  0  0  0  0
    8.5824   -5.0643   24.2175 C   0  0  0  0  0  0  0  0  0  0  0  0
    9.9207   -4.9822   24.4991 C   0  0  0  0  0  0  0  0  0  0  0  0
   10.6751   -3.7059   24.2585 C   0  0  0  0  0  0  0  0  0  0  0  0
   10.1434   -2.8433   23.0917 C   0  0  0  0  0  0  0  0  0  0  0  0
    7.6893   -1.6968   20.8126 N   0  0  0  0  0  0  0  0  0  0  0  0
    7.0959   -0.4744   20.8857 N   0  0  0  0  0  0  0  0  0  0  0  0
    6.5120    0.1844   19.7944 C   0  0  0  0  0  0  0  0  0  0  0  0
    5.4460    1.0927   19.9312 C   0  0  0  0  0  0  0  0  0  0  0  0
    4.8975    1.6252   18.7590 C   0  0  0  0  0  0  0  0  0  0  0  0
    5.4359    1.2811   17.5132 C   0  0  0  0  0  0  0  0  0  0  0  0
    6.4854    0.4484   17.3888 N   0  0  0  0  0  0  0  0  0  0  0  0
    6.9983   -0.0927   18.5100 C   0  0  0  0  0  0  0  0  0  0  0  0
    9.2504    2.2176   23.4471 C   0  0  0  0  0  0  0  0  0  0  0  0
   10.1602    1.8214   24.3067 N   0  0  0  0  0  0  0  0  0  0  0  0
  1  2  1  0
  2  3  2  0
  3  4  1  0
  4  5  1  0
  5  6  1  0
  6  7  2  0
  7  8  1  0
  9  8  1  1
  9 10  1  0
 10 11  1  0
 11 12  2  0
 12 13  1  0
 13 14  1  0
  8 15  2  0
 15 16  1  0
 16 17  1  0
 17 18  2  0
 18 19  1  0
 19 20  2  0
 20 21  1  0
 21 22  2  0
  4 23  1  0
 23 24  2  0
 24  2  1  0
 16  6  1  0
 22 17  1  0
 14  9  1  0
M  END
>  <cnnaffinity>  (148) 
-6.4034

>  <filename>  (148) 
Brc1cn(Cc2nc(C3CC=CCC3)nn2-c2cccnc2)cn1

>  <enamine_id>  (148) 
PV-007140938359

$$$$

     RDKit          3D

 27 30  0  0  0  0  0  0  0  0999 V2000
   10.7014    4.3532   22.8994 O   0  0  0  0  0  0  0  0  0  0  0  0
   11.0403    3.2511   23.3044 C   0  0  0  0  0  0  0  0  0  0  0  0
   12.4195    2.9148   23.6200 C   0  0  0  0  0  0  0  0  0  0  0  0
   12.7553    1.7284   24.1937 C   0  0  0  0  0  0  0  0  0  0  0  0
   11.7359    0.7824   24.5137 C   0  0  0  0  0  0  0  0  0  0  0  0
   10.4503    1.0391   24.1497 C   0  0  0  0  0  0  0  0  0  0  0  0
   10.1007    2.1990   23.4914 N   0  0  0  0  0  0  0  0  0  0  0  0
    8.8304    2.2841   22.7563 C   0  0  0  0  0  0  0  0  0  0  0  0
    9.0119    2.0123   21.2558 C   0  0  0  0  0  0  0  0  0  0  0  0
    9.5256    0.5971   20.9145 C   0  0  0  0  0  0  0  0  0  0  0  0
    8.6367   -0.4994   21.4073 C   0  0  0  0  0  0  0  0  0  0  0  0
    8.8525   -1.3440   22.4022 N   0  0  0  0  0  0  0  0  0  0  0  0
    7.6545   -1.9779   22.5410 C   0  0  0  0  0  0  0  0  0  0  0  0
    7.4022   -2.9724   23.6378 C   0  0  0  0  0  0  0  0  0  0  0  0
    6.6664   -4.2418   23.1502 C   0  0  0  0  0  0  0  0  0  0  0  0
    6.5450   -5.3037   24.2726 C   0  0  0  0  0  0  0  0  0  0  0  0
    6.4983   -4.7074   25.7022 C   0  0  0  0  0  0  0  0  0  0  0  0
    5.8705   -3.3065   25.7172 C   0  0  0  0  0  0  0  0  0  0  0  0
    6.6595   -2.3041   24.8425 C   0  0  0  0  0  0  0  0  0  0  0  0
    6.7223   -1.5877   21.6927 N   0  0  0  0  0  0  0  0  0  0  0  0
    7.3676   -0.6624   20.9377 N   0  0  0  0  0  0  0  0  0  0  0  0
    6.6752   -0.0029   19.8856 C   0  0  0  0  0  0  0  0  0  0  0  0
    5.4579    0.6307   20.1519 C   0  0  0  0  0  0  0  0  0  0  0  0
    4.8289    1.3083   19.1008 C   0  0  0  0  0  0  0  0  0  0  0  0
    5.4207    1.3075   17.8334 C   0  0  0  0  0  0  0  0  0  0  0  0
    6.5686    0.6680   17.5637 N   0  0  0  0  0  0  0  0  0  0  0  0
    7.1722    0.0291   18.5741 C   0  0  0  0  0  0  0  0  0  0  0  0
  1  2  2  0
  2  3  1  0
  3  4  2  0
  4  5  1  0
  5  6  2  0
  6  7  1  0
  7  8  1  0
  8  9  1  0
  9 10  1  0
 10 11  1  0
 11 12  2  0
 12 13  1  0
 13 14  1  0
 14 15  1  0
 15 16  1  0
 16 17  1  0
 17 18  1  0
 18 19  1  0
 13 20  2  0
 20 21  1  0
 21 22  1  0
 22 23  2  0
 23 24  1  0
 24 25  2  0
 25 26  1  0
 26 27  2  0
  7  2  1  0
 21 11  1  0
 27 22  1  0
 19 14  1  0
M  END
>  <cnnaffinity>  (149) 
-6.39858

>  <filename>  (149) 
O=c1ccccn1CCCc1nc(C2CCCCC2)nn1-c1cccnc1

>  <enamine_id>  (149) 
PV-006728531518

$$$$

     RDKit          3D

 25 28  0  0  0  0  0  0  0  0999 V2000
   13.1810   -1.9016   21.4283 C   0  0  0  0  0  0  0  0  0  0  0  0
   12.0620   -1.0782   21.2117 O   0  0  0  0  0  0  0  0  0  0  0  0
   11.8573    0.0315   21.9699 C   0  0  0  0  0  0  0  0  0  0  0  0
   12.7226    0.4665   22.9860 C   0  0  0  0  0  0  0  0  0  0  0  0
   12.4521    1.6603   23.6637 C   0  0  0  0  0  0  0  0  0  0  0  0
   11.3160    2.4103   23.3504 C   0  0  0  0  0  0  0  0  0  0  0  0
   10.4409    1.9506   22.3562 C   0  0  0  0  0  0  0  0  0  0  0  0
   10.6863    0.7629   21.6649 C   0  0  0  0  0  0  0  0  0  0  0  0
    9.6545    0.2165   20.6980 C   0  0  0  0  0  0  0  0  0  0  0  0
    8.6099   -0.6224   21.3541 C   0  0  0  0  0  0  0  0  0  0  0  0
    8.8101   -1.4488   22.3585 N   0  0  0  0  0  0  0  0  0  0  0  0
    7.5911   -1.9879   22.5736 C   0  0  0  0  0  0  0  0  0  0  0  0
    7.4041   -2.9903   23.6676 C   0  0  1  0  0  0  0  0  0  0  0  0
    6.5063   -2.4717   24.8394 C   0  0  0  0  0  0  0  0  0  0  0  0
    5.2362   -3.3280   24.7067 C   0  0  0  0  0  0  0  0  0  0  0  0
    5.2674   -3.8250   23.3856 O   0  0  0  0  0  0  0  0  0  0  0  0
    6.6040   -4.2056   23.1613 C   0  0  0  0  0  0  0  0  0  0  0  0
    6.6424   -1.5646   21.7550 N   0  0  0  0  0  0  0  0  0  0  0  0
    7.3111   -0.7060   20.9406 N   0  0  0  0  0  0  0  0  0  0  0  0
    6.6387   -0.0201   19.8899 C   0  0  0  0  0  0  0  0  0  0  0  0
    5.4291    0.6290   20.1513 C   0  0  0  0  0  0  0  0  0  0  0  0
    4.8060    1.3087   19.1024 C   0  0  0  0  0  0  0  0  0  0  0  0
    5.3987    1.2973   17.8339 C   0  0  0  0  0  0  0  0  0  0  0  0
    6.5505    0.6616   17.5712 N   0  0  0  0  0  0  0  0  0  0  0  0
    7.1550    0.0275   18.5819 C   0  0  0  0  0  0  0  0  0  0  0  0
  1  2  1  0
  2  3  1  0
  3  4  2  0
  4  5  1  0
  5  6  2  0
  6  7  1  0
  7  8  2  0
  8  9  1  0
  9 10  1  0
 10 11  2  0
 11 12  1  0
 13 12  1  6
 13 14  1  0
 14 15  1  0
 15 16  1  0
 16 17  1  0
 12 18  2  0
 18 19  1  0
 19 20  1  0
 20 21  2  0
 21 22  1  0
 22 23  2  0
 23 24  1  0
 24 25  2  0
  8  3  1  0
 19 10  1  0
 25 20  1  0
 17 13  1  0
M  END
>  <cnnaffinity>  (150) 
-6.39775

>  <filename>  (150) 
COc1ccccc1Cc1nc(C2CCOC2)nn1-c1cccnc1

>  <enamine_id>  (150) 
PV-007079735699

$$$$

     RDKit          3D

 23 25  0  0  0  0  0  0  0  0999 V2000
    8.5441   -4.8217   22.4441 C   0  0  0  0  0  0  0  0  0  0  0  0
    7.1679   -4.4982   23.0265 C   0  0  0  0  0  0  0  0  0  0  0  0
    7.1950   -3.0659   23.6062 C   0  0  0  0  0  0  0  0  0  0  0  0
    7.4667   -2.0200   22.5671 C   0  0  0  0  0  0  0  0  0  0  0  0
    6.5877   -1.6558   21.6580 N   0  0  0  0  0  0  0  0  0  0  0  0
    7.2732   -0.7467   20.9128 N   0  0  0  0  0  0  0  0  0  0  0  0
    6.6006   -0.0485   19.8725 C   0  0  0  0  0  0  0  0  0  0  0  0
    5.3940    0.6130   20.1318 C   0  0  0  0  0  0  0  0  0  0  0  0
    4.7895    1.3116   19.0879 C   0  0  0  0  0  0  0  0  0  0  0  0
    5.3916    1.3013   17.8230 C   0  0  0  0  0  0  0  0  0  0  0  0
    6.5271    0.6359   17.5574 N   0  0  0  0  0  0  0  0  0  0  0  0
    7.1147   -0.0185   18.5640 C   0  0  0  0  0  0  0  0  0  0  0  0
    8.5332   -0.6092   21.4279 C   0  0  0  0  0  0  0  0  0  0  0  0
    9.6417    0.2238   20.8584 C   0  0  0  0  0  0  0  0  0  0  0  0
   10.3569    1.0659   21.8962 C   0  0  0  0  0  0  0  0  0  0  0  0
    9.7721    2.1904   22.5013 C   0  0  0  0  0  0  0  0  0  0  0  0
    8.2232    2.7754   21.9807 Cl  0  0  0  0  0  0  0  0  0  0  0  0
   10.4219    2.8614   23.5489 C   0  0  0  0  0  0  0  0  0  0  0  0
   11.6191    2.4894   24.0196 N   0  0  0  0  0  0  0  0  0  0  0  0
   12.2068    1.4319   23.4496 C   0  0  0  0  0  0  0  0  0  0  0  0
   11.6249    0.7325   22.3879 C   0  0  0  0  0  0  0  0  0  0  0  0
   12.3120   -0.2873   21.8462 F   0  0  0  0  0  0  0  0  0  0  0  0
    8.6770   -1.4110   22.4667 N   0  0  0  0  0  0  0  0  0  0  0  0
  1  2  1  0
  2  3  1  0
  3  4  1  0
  4  5  2  0
  5  6  1  0
  6  7  1  0
  7  8  2  0
  8  9  1  0
  9 10  2  0
 10 11  1  0
 11 12  2  0
  6 13  1  0
 13 14  1  0
 14 15  1  0
 15 16  2  0
 16 17  1  0
 16 18  1  0
 18 19  2  0
 19 20  1  0
 20 21  2  0
 21 22  1  0
 13 23  2  0
 23  4  1  0
 12  7  1  0
 21 15  1  0
M  END
>  <cnnaffinity>  (151) 
-6.39558

>  <filename>  (151) 
CCCc1nc(Cc2c(F)cncc2Cl)n(-c2cccnc2)n1

>  <enamine_id>  (151) 
PV-006825491841

$$$$

     RDKit          3D

 24 27  0  0  0  0  0  0  0  0999 V2000
   12.1743   -0.3932   21.7850 F   0  0  0  0  0  0  0  0  0  0  0  0
   11.5947    0.6825   22.3455 C   0  0  0  0  0  0  0  0  0  0  0  0
   12.2484    1.3042   23.4028 C   0  0  0  0  0  0  0  0  0  0  0  0
   11.6250    2.3994   24.0011 C   0  0  0  0  0  0  0  0  0  0  0  0
   10.3819    2.8539   23.5652 C   0  0  0  0  0  0  0  0  0  0  0  0
    9.7648    2.1977   22.5000 C   0  0  0  0  0  0  0  0  0  0  0  0
    8.1905    2.7476   22.0082 Cl  0  0  0  0  0  0  0  0  0  0  0  0
   10.3558    1.1044   21.8488 C   0  0  0  0  0  0  0  0  0  0  0  0
    9.6238    0.3204   20.7789 C   0  0  0  0  0  0  0  0  0  0  0  0
    8.6035   -0.5991   21.3532 C   0  0  0  0  0  0  0  0  0  0  0  0
    8.8414   -1.4542   22.3236 N   0  0  0  0  0  0  0  0  0  0  0  0
    7.6332   -2.0292   22.5304 C   0  0  0  0  0  0  0  0  0  0  0  0
    7.4298   -3.0274   23.6151 C   0  0  0  0  0  0  0  0  0  0  0  0
    8.4326   -4.2148   23.6043 C   0  0  0  0  0  0  0  0  0  0  0  0
    9.0524   -3.8007   25.2694 S   0  0  0  0  0  0  0  0  0  0  0  0
    7.7829   -2.5103   25.0408 C   0  0  0  0  0  0  0  0  0  0  0  0
    6.6743   -1.6125   21.7312 N   0  0  0  0  0  0  0  0  0  0  0  0
    7.3121   -0.7071   20.9346 N   0  0  0  0  0  0  0  0  0  0  0  0
    6.6412   -0.0053   19.8991 C   0  0  0  0  0  0  0  0  0  0  0  0
    5.4328    0.6452   20.1641 C   0  0  0  0  0  0  0  0  0  0  0  0
    4.8110    1.3143   19.1083 C   0  0  0  0  0  0  0  0  0  0  0  0
    5.3987    1.2961   17.8373 C   0  0  0  0  0  0  0  0  0  0  0  0
    6.5557    0.6694   17.5767 N   0  0  0  0  0  0  0  0  0  0  0  0
    7.1626    0.0468   18.5913 C   0  0  0  0  0  0  0  0  0  0  0  0
  1  2  1  0
  2  3  2  0
  3  4  1  0
  4  5  2  0
  5  6  1  0
  6  7  1  0
  6  8  2  0
  8  9  1  0
  9 10  1  0
 10 11  2  0
 11 12  1  0
 12 13  1  0
 13 14  1  0
 14 15  1  0
 15 16  1  0
 12 17  2  0
 17 18  1  0
 18 19  1  0
 19 20  2  0
 20 21  1  0
 21 22  2  0
 22 23  1  0
 23 24  2  0
  8  2  1  0
 18 10  1  0
 24 19  1  0
 16 13  1  0
M  END
>  <cnnaffinity>  (152) 
-6.39437

>  <filename>  (152) 
Fc1cccc(Cl)c1Cc1nc(C2CSC2)nn1-c1cccnc1

>  <enamine_id>  (152) 
PV-007162504647

$$$$

     RDKit          3D

 23 26  0  0  0  0  0  0  0  0999 V2000
   12.2811   -1.3856   21.1877 C   0  0  0  0  0  0  0  0  0  0  0  0
   11.8896   -0.1206   21.8782 C   0  0  0  0  0  0  0  0  0  0  0  0
   12.5177    0.5487   22.8993 C   0  0  0  0  0  0  0  0  0  0  0  0
   11.6824    1.6510   23.1707 C   0  0  0  0  0  0  0  0  0  0  0  0
   10.6190    1.6641   22.3799 N   0  0  0  0  0  0  0  0  0  0  0  0
   10.7626    0.5883   21.5817 N   0  0  0  0  0  0  0  0  0  0  0  0
    9.6734    0.2235   20.6976 C   0  0  0  0  0  0  0  0  0  0  0  0
    8.6411   -0.6096   21.3632 C   0  0  0  0  0  0  0  0  0  0  0  0
    8.8524   -1.4752   22.3245 N   0  0  0  0  0  0  0  0  0  0  0  0
    7.6134   -1.9807   22.5638 C   0  0  0  0  0  0  0  0  0  0  0  0
    7.3872   -2.9433   23.6812 C   0  0  0  0  0  0  0  0  0  0  0  0
    8.2410   -4.2240   23.5718 C   0  0  0  0  0  0  0  0  0  0  0  0
    8.3450   -4.7743   25.0052 C   0  0  0  0  0  0  0  0  0  0  0  0
    8.0260   -3.5971   25.9619 C   0  0  0  0  0  0  0  0  0  0  0  0
    7.7317   -2.3715   25.0769 C   0  0  0  0  0  0  0  0  0  0  0  0
    6.6731   -1.5330   21.7598 N   0  0  0  0  0  0  0  0  0  0  0  0
    7.3415   -0.6761   20.9431 N   0  0  0  0  0  0  0  0  0  0  0  0
    6.6576    0.0091   19.9043 C   0  0  0  0  0  0  0  0  0  0  0  0
    5.4384    0.6468   20.1657 C   0  0  0  0  0  0  0  0  0  0  0  0
    4.8131    1.3108   19.1089 C   0  0  0  0  0  0  0  0  0  0  0  0
    5.4023    1.2956   17.8371 C   0  0  0  0  0  0  0  0  0  0  0  0
    6.5614    0.6727   17.5777 N   0  0  0  0  0  0  0  0  0  0  0  0
    7.1696    0.0534   18.5945 C   0  0  0  0  0  0  0  0  0  0  0  0
  1  2  1  0
  2  3  2  0
  3  4  1  0
  4  5  2  0
  5  6  1  0
  6  7  1  0
  7  8  1  0
  8  9  2  0
  9 10  1  0
 10 11  1  0
 11 12  1  0
 12 13  1  0
 13 14  1  0
 14 15  1  0
 10 16  2  0
 16 17  1  0
 17 18  1  0
 18 19  2  0
 19 20  1  0
 20 21  2  0
 21 22  1  0
 22 23  2  0
  6  2  1  0
 17  8  1  0
 23 18  1  0
 15 11  1  0
M  END
>  <cnnaffinity>  (153) 
-6.39362

>  <filename>  (153) 
Cc1ccnn1Cc1nc(C2CCCC2)nn1-c1cccnc1

>  <enamine_id>  (153) 
PV-007139285342

$$$$

     RDKit          3D

 24 26  0  0  0  0  0  0  0  0999 V2000
    6.2349   -3.1905   25.5912 C   0  0  0  0  0  0  0  0  0  0  0  0
    6.2001   -2.9107   24.2123 O   0  0  0  0  0  0  0  0  0  0  0  0
    7.4336   -3.0920   23.5341 C   0  0  1  0  0  0  0  0  0  0  0  0
    7.4613   -4.4797   22.8768 C   0  0  0  0  0  0  0  0  0  0  0  0
    7.6354   -2.0004   22.5162 C   0  0  0  0  0  0  0  0  0  0  0  0
    6.6867   -1.5831   21.7003 N   0  0  0  0  0  0  0  0  0  0  0  0
    7.3345   -0.6876   20.9200 N   0  0  0  0  0  0  0  0  0  0  0  0
    6.6448    0.0008   19.8897 C   0  0  0  0  0  0  0  0  0  0  0  0
    5.4347    0.6426   20.1635 C   0  0  0  0  0  0  0  0  0  0  0  0
    4.8119    1.3130   19.1086 C   0  0  0  0  0  0  0  0  0  0  0  0
    5.3978    1.2987   17.8356 C   0  0  0  0  0  0  0  0  0  0  0  0
    6.5534    0.6723   17.5681 N   0  0  0  0  0  0  0  0  0  0  0  0
    7.1604    0.0470   18.5821 C   0  0  0  0  0  0  0  0  0  0  0  0
    8.6216   -0.5684   21.3598 C   0  0  0  0  0  0  0  0  0  0  0  0
    9.6329    0.3466   20.7785 C   0  0  0  0  0  0  0  0  0  0  0  0
   10.4129    1.0911   21.8419 C   0  0  0  0  0  0  0  0  0  0  0  0
   11.6149    0.5778   22.3604 C   0  0  0  0  0  0  0  0  0  0  0  0
   12.2795   -0.9154   21.7516 Cl  0  0  0  0  0  0  0  0  0  0  0  0
   12.2963    1.2036   23.4065 C   0  0  0  0  0  0  0  0  0  0  0  0
   11.7474    2.3598   23.9476 C   0  0  0  0  0  0  0  0  0  0  0  0
   10.5437    2.8775   23.4732 C   0  0  0  0  0  0  0  0  0  0  0  0
    9.8541    2.2461   22.4380 C   0  0  0  0  0  0  0  0  0  0  0  0
    8.5356    2.8225   21.9842 C   0  0  0  0  0  0  0  0  0  0  0  0
    8.8544   -1.4420   22.3183 N   0  0  0  0  0  0  0  0  0  0  0  0
  1  2  1  0
  2  3  1  0
  3  4  1  6
  3  5  1  0
  5  6  2  0
  6  7  1  0
  7  8  1  0
  8  9  2  0
  9 10  1  0
 10 11  2  0
 11 12  1  0
 12 13  2  0
  7 14  1  0
 14 15  1  0
 15 16  1  0
 16 17  2  0
 17 18  1  0
 17 19  1  0
 19 20  2  0
 20 21  1  0
 21 22  2  0
 22 23  1  0
 14 24  2  0
 24  5  1  0
 13  8  1  0
 22 16  1  0
M  END
>  <cnnaffinity>  (154) 
-6.39219

>  <filename>  (154) 
COC(C)c1nc(Cc2c(C)cccc2Cl)n(-c2cccnc2)n1

>  <enamine_id>  (154) 
PV-007167457679

$$$$

     RDKit          3D

 25 28  0  0  0  0  0  0  0  0999 V2000
   14.1366   -0.0263   22.6452 C   0  0  0  0  0  0  0  0  0  0  0  0
   12.7716    0.6057   22.5597 C   0  0  0  0  0  0  0  0  0  0  0  0
   12.4704    1.7538   23.2997 C   0  0  0  0  0  0  0  0  0  0  0  0
   11.2588    2.4425   23.1476 C   0  0  0  0  0  0  0  0  0  0  0  0
   11.0107    3.7098   23.9357 C   0  0  0  0  0  0  0  0  0  0  0  0
   10.3037    1.9177   22.2563 C   0  0  0  0  0  0  0  0  0  0  0  0
   10.5757    0.7608   21.5163 C   0  0  0  0  0  0  0  0  0  0  0  0
    9.5369    0.1518   20.6002 C   0  0  0  0  0  0  0  0  0  0  0  0
    8.5064   -0.6615   21.3170 C   0  0  0  0  0  0  0  0  0  0  0  0
    8.7267   -1.4589   22.3397 N   0  0  0  0  0  0  0  0  0  0  0  0
    7.5100   -2.0298   22.5595 C   0  0  0  0  0  0  0  0  0  0  0  0
    7.3219   -3.0267   23.6557 C   0  0  1  0  0  0  0  0  0  0  0  0
    8.2387   -4.2736   23.5696 C   0  0  0  0  0  0  0  0  0  0  0  0
    8.3526   -4.7171   25.0349 C   0  0  0  0  0  0  0  0  0  0  0  0
    8.0175   -3.5909   25.8330 O   0  0  0  0  0  0  0  0  0  0  0  0
    7.7435   -2.4639   25.0245 C   0  0  0  0  0  0  0  0  0  0  0  0
    6.5588   -1.6370   21.7397 N   0  0  0  0  0  0  0  0  0  0  0  0
    7.2075   -0.7688   20.9183 N   0  0  0  0  0  0  0  0  0  0  0  0
    6.5396   -0.0802   19.8685 C   0  0  0  0  0  0  0  0  0  0  0  0
    5.3534    0.6146   20.1187 C   0  0  0  0  0  0  0  0  0  0  0  0
    4.7719    1.3275   19.0669 C   0  0  0  0  0  0  0  0  0  0  0  0
    5.3883    1.3094   17.8103 C   0  0  0  0  0  0  0  0  0  0  0  0
    6.5174    0.6303   17.5575 N   0  0  0  0  0  0  0  0  0  0  0  0
    7.0762   -0.0426   18.5685 C   0  0  0  0  0  0  0  0  0  0  0  0
   11.8020    0.1188   21.6736 C   0  0  0  0  0  0  0  0  0  0  0  0
  1  2  1  0
  2  3  2  0
  3  4  1  0
  4  5  1  0
  4  6  2  0
  6  7  1  0
  7  8  1  0
  8  9  1  0
  9 10  2  0
 10 11  1  0
 12 11  1  6
 12 13  1  0
 13 14  1  0
 14 15  1  0
 15 16  1  0
 11 17  2  0
 17 18  1  0
 18 19  1  0
 19 20  2  0
 20 21  1  0
 21 22  2  0
 22 23  1  0
 23 24  2  0
  7 25  2  0
 25  2  1  0
 18  9  1  0
 24 19  1  0
 16 12  1  0
M  END
>  <cnnaffinity>  (155) 
-6.39143

>  <filename>  (155) 
Cc1cc(C)cc(Cc2nc(C3CCOC3)nn2-c2cccnc2)c1

>  <enamine_id>  (155) 
PV-006777636170

$$$$

     RDKit          3D

 24 27  0  0  0  0  0  0  0  0999 V2000
   13.5956    0.3552   23.5618 C   0  0  0  0  0  0  0  0  0  0  0  0
   12.3896    0.8005   22.8991 N   0  0  0  0  0  0  0  0  0  0  0  0
   11.6125    1.8250   23.3136 C   0  0  0  0  0  0  0  0  0  0  0  0
   10.4854    1.8110   22.5188 C   0  0  0  0  0  0  0  0  0  0  0  0
   10.6711    0.6998   21.6705 C   0  0  0  0  0  0  0  0  0  0  0  0
    9.6820    0.1732   20.6886 C   0  0  0  0  0  0  0  0  0  0  0  0
    8.6281   -0.6410   21.3440 C   0  0  0  0  0  0  0  0  0  0  0  0
    8.8398   -1.4811   22.3277 N   0  0  0  0  0  0  0  0  0  0  0  0
    7.6096   -2.0084   22.5549 C   0  0  0  0  0  0  0  0  0  0  0  0
    7.3853   -3.0101   23.6383 C   0  0  1  0  0  0  0  0  0  0  0  0
    8.1059   -4.3511   23.3146 C   0  0  0  0  0  0  0  0  0  0  0  0
    8.0884   -5.3009   24.4900 C   0  0  0  0  0  0  0  0  0  0  0  0
    7.8513   -4.9146   25.7452 C   0  0  0  0  0  0  0  0  0  0  0  0
    7.5101   -3.4904   26.1292 C   0  0  0  0  0  0  0  0  0  0  0  0
    7.8594   -2.4819   25.0189 C   0  0  0  0  0  0  0  0  0  0  0  0
    6.6612   -1.5664   21.7541 N   0  0  0  0  0  0  0  0  0  0  0  0
    7.3227   -0.6947   20.9485 N   0  0  0  0  0  0  0  0  0  0  0  0
    6.6499   -0.0068   19.8993 C   0  0  0  0  0  0  0  0  0  0  0  0
    5.4371    0.6401   20.1560 C   0  0  0  0  0  0  0  0  0  0  0  0
    4.8070    1.3119   19.1046 C   0  0  0  0  0  0  0  0  0  0  0  0
    5.3979    1.2951   17.8351 C   0  0  0  0  0  0  0  0  0  0  0  0
    6.5527    0.6645   17.5776 N   0  0  0  0  0  0  0  0  0  0  0  0
    7.1631    0.0402   18.5902 C   0  0  0  0  0  0  0  0  0  0  0  0
   11.8251    0.1016   21.9034 N   0  0  0  0  0  0  0  0  0  0  0  0
  1  2  1  0
  2  3  1  0
  3  4  2  0
  4  5  1  0
  5  6  1  0
  6  7  1  0
  7  8  2  0
  8  9  1  0
 10  9  1  6
 10 11  1  0
 11 12  1  0
 12 13  2  0
 13 14  1  0
 14 15  1  0
  9 16  2  0
 16 17  1  0
 17 18  1  0
 18 19  2  0
 19 20  1  0
 20 21  2  0
 21 22  1  0
 22 23  2  0
  5 24  2  0
 24  2  1  0
 17  7  1  0
 23 18  1  0
 15 10  1  0
M  END
>  <cnnaffinity>  (156) 
-6.38748

>  <filename>  (156) 
Cn1ccc(Cc2nc(C3CC=CCC3)nn2-c2cccnc2)n1

>  <enamine_id>  (156) 
PV-006795291045

$$$$

     RDKit          3D

 25 28  0  0  0  0  0  0  0  0999 V2000
    7.7949    1.1321   25.0041 C   0  0  0  0  0  0  0  0  0  0  0  0
    9.1683    1.5726   24.6186 C   0  0  0  0  0  0  0  0  0  0  0  0
   10.2209    1.5283   25.4016 N   0  0  0  0  0  0  0  0  0  0  0  0
   11.2405    2.0895   24.6804 C   0  0  0  0  0  0  0  0  0  0  0  0
   10.8027    2.4888   23.4531 C   0  0  0  0  0  0  0  0  0  0  0  0
    9.4623    2.1478   23.4092 N   0  0  0  0  0  0  0  0  0  0  0  0
    8.5534    2.4361   22.3083 C   0  0  0  0  0  0  0  0  0  0  0  0
    9.0966    1.9814   20.9611 C   0  0  0  0  0  0  0  0  0  0  0  0
    9.5684    0.5194   20.9052 C   0  0  0  0  0  0  0  0  0  0  0  0
    8.6247   -0.4959   21.4367 C   0  0  0  0  0  0  0  0  0  0  0  0
    8.8687   -1.3791   22.3786 N   0  0  0  0  0  0  0  0  0  0  0  0
    7.7034   -2.0706   22.4683 C   0  0  0  0  0  0  0  0  0  0  0  0
    7.5110   -3.1966   23.4438 C   0  0  0  0  0  0  0  0  0  0  0  0
    7.3348   -2.7008   24.8997 C   0  0  0  0  0  0  0  0  0  0  0  0
    8.7600   -2.6027   25.4809 C   0  0  0  0  0  0  0  0  0  0  0  0
    9.6280   -3.6028   24.6812 C   0  0  0  0  0  0  0  0  0  0  0  0
    8.7430   -4.1299   23.5264 C   0  0  0  0  0  0  0  0  0  0  0  0
    6.7594   -1.6715   21.6385 N   0  0  0  0  0  0  0  0  0  0  0  0
    7.3614   -0.6663   20.9430 N   0  0  0  0  0  0  0  0  0  0  0  0
    6.6611    0.0106   19.9018 C   0  0  0  0  0  0  0  0  0  0  0  0
    5.4422    0.6465   20.1679 C   0  0  0  0  0  0  0  0  0  0  0  0
    4.8143    1.3110   19.1088 C   0  0  0  0  0  0  0  0  0  0  0  0
    5.4019    1.2977   17.8359 C   0  0  0  0  0  0  0  0  0  0  0  0
    6.5599    0.6734   17.5724 N   0  0  0  0  0  0  0  0  0  0  0  0
    7.1654    0.0498   18.5898 C   0  0  0  0  0  0  0  0  0  0  0  0
  1  2  1  0
  2  3  2  0
  3  4  1  0
  4  5  2  0
  5  6  1  0
  6  7  1  0
  7  8  1  0
  8  9  1  0
  9 10  1  0
 10 11  2  0
 11 12  1  0
 12 13  1  0
 13 14  1  0
 14 15  1  0
 15 16  1  0
 16 17  1  0
 12 18  2  0
 18 19  1  0
 19 20  1  0
 20 21  2  0
 21 22  1  0
 22 23  2  0
 23 24  1  0
 24 25  2  0
  6  2  1  0
 19 10  1  0
 25 20  1  0
 17 13  1  0
M  END
>  <cnnaffinity>  (157) 
-6.38528

>  <filename>  (157) 
Cc1nccn1CCCc1nc(C2CCCC2)nn1-c1cccnc1

>  <enamine_id>  (157) 
PV-006970221433

$$$$

     RDKit          3D

 27 30  0  0  0  0  0  0  0  0999 V2000
    9.4431    2.3586   21.2634 C   0  0  0  0  0  0  0  0  0  0  0  0
    9.5833    2.1231   22.7491 C   0  0  0  0  0  0  0  0  0  0  0  0
   10.8224    2.3766   23.3633 C   0  0  0  0  0  0  0  0  0  0  0  0
   11.0385    2.0377   24.7020 C   0  0  0  0  0  0  0  0  0  0  0  0
   10.0045    1.4849   25.4567 C   0  0  0  0  0  0  0  0  0  0  0  0
    8.7450    1.3213   24.8716 C   0  0  0  0  0  0  0  0  0  0  0  0
    7.4638    0.6818   25.8737 Cl  0  0  0  0  0  0  0  0  0  0  0  0
    8.5096    1.6101   23.5160 C   0  0  0  0  0  0  0  0  0  0  0  0
    7.1987    1.1950   22.8367 C   0  0  0  0  0  0  0  0  0  0  0  0
    7.2805   -0.2348   22.3384 C   0  0  0  0  0  0  0  0  0  0  0  0
    7.7591   -1.2770   23.0225 N   0  0  0  0  0  0  0  0  0  0  0  0
    8.1006   -2.1545   22.0384 C   0  0  0  0  0  0  0  0  0  0  0  0
    8.9556   -3.3807   22.2146 C   0  0  1  0  0  0  0  0  0  0  0  0
    9.3382   -3.6271   23.6705 C   0  0  0  0  0  0  0  0  0  0  0  0
    8.0865   -3.9599   24.4660 N   0  0  2  0  0  4  0  0  0  0  0  0
    8.4397   -4.3323   25.8617 C   0  0  0  0  0  0  0  0  0  0  0  0
    7.3787   -5.1420   23.8136 C   0  0  0  0  0  0  0  0  0  0  0  0
    7.1476   -4.9182   22.3218 C   0  0  0  0  0  0  0  0  0  0  0  0
    8.3624   -4.5641   21.6546 O   0  0  0  0  0  0  0  0  0  0  0  0
    7.7558   -1.7912   20.8189 N   0  0  0  0  0  0  0  0  0  0  0  0
    7.1504   -0.5945   21.0178 N   0  0  0  0  0  0  0  0  0  0  0  0
    6.5190    0.0415   19.9211 C   0  0  0  0  0  0  0  0  0  0  0  0
    5.3162    0.7331   20.0833 C   0  0  0  0  0  0  0  0  0  0  0  0
    4.7786    1.3788   18.9662 C   0  0  0  0  0  0  0  0  0  0  0  0
    5.4584    1.3121   17.7473 C   0  0  0  0  0  0  0  0  0  0  0  0
    6.5949    0.6132   17.5794 N   0  0  0  0  0  0  0  0  0  0  0  0
    7.0981   -0.0273   18.6395 C   0  0  0  0  0  0  0  0  0  0  0  0
  1  2  1  0
  2  3  2  0
  3  4  1  0
  4  5  2  0
  5  6  1  0
  6  7  1  0
  6  8  2  0
  8  9  1  0
  9 10  1  0
 10 11  2  0
 11 12  1  0
 13 12  1  1
 13 14  1  0
 14 15  1  0
 15 16  1  1
 15 17  1  0
 17 18  1  0
 18 19  1  0
 12 20  2  0
 20 21  1  0
 21 22  1  0
 22 23  2  0
 23 24  1  0
 24 25  2  0
 25 26  1  0
 26 27  2  0
  8  2  1  0
 21 10  1  0
 27 22  1  0
 19 13  1  0
M  CHG  1  15   1
M  END
>  <cnnaffinity>  (158) 
-6.38327

>  <filename>  (158) 
Cc1cccc(Cl)c1Cc1nc(C2C[NH+](C)CCO2)nn1-c1cccnc1

>  <enamine_id>  (158) 
PV-007075965988

$$$$

     RDKit          3D

 23 26  0  0  0  0  0  0  0  0999 V2000
    7.8028    2.8197   22.0338 C   0  0  0  0  0  0  0  0  0  0  0  0
    9.1809    2.4060   22.4065 C   0  0  0  0  0  0  0  0  0  0  0  0
   10.0060    1.4267   21.9494 C   0  0  0  0  0  0  0  0  0  0  0  0
    9.6587    0.3732   20.9135 C   0  0  0  0  0  0  0  0  0  0  0  0
    8.6115   -0.5902   21.3792 C   0  0  0  0  0  0  0  0  0  0  0  0
    8.8158   -1.4514   22.3537 N   0  0  0  0  0  0  0  0  0  0  0  0
    7.6000   -2.0302   22.5227 C   0  0  0  0  0  0  0  0  0  0  0  0
    7.3713   -3.0502   23.6030 C   0  0  0  0  0  0  0  0  0  0  0  0
    6.3204   -4.1183   23.2555 C   0  0  0  0  0  0  0  0  0  0  0  0
    6.6184   -5.3158   24.1739 C   0  0  0  0  0  0  0  0  0  0  0  0
    8.0852   -5.1556   24.6463 C   0  0  0  0  0  0  0  0  0  0  0  0
    8.6203   -3.8704   23.9896 C   0  0  0  0  0  0  0  0  0  0  0  0
    6.6656   -1.6034   21.6890 N   0  0  0  0  0  0  0  0  0  0  0  0
    7.3257   -0.6910   20.9249 N   0  0  0  0  0  0  0  0  0  0  0  0
    6.6334   -0.0278   19.8687 C   0  0  0  0  0  0  0  0  0  0  0  0
    5.4198    0.6187   20.1291 C   0  0  0  0  0  0  0  0  0  0  0  0
    4.7963    1.3094   19.0859 C   0  0  0  0  0  0  0  0  0  0  0  0
    5.3910    1.3060   17.8178 C   0  0  0  0  0  0  0  0  0  0  0  0
    6.5273    0.6464   17.5434 N   0  0  0  0  0  0  0  0  0  0  0  0
    7.1320    0.0005   18.5509 C   0  0  0  0  0  0  0  0  0  0  0  0
   11.1609    1.4610   22.8034 C   0  0  0  0  0  0  0  0  0  0  0  0
   10.9473    2.4517   23.7023 C   0  0  0  0  0  0  0  0  0  0  0  0
    9.7420    3.0313   23.4761 O   0  0  0  0  0  0  0  0  0  0  0  0
  1  2  1  0
  2  3  2  0
  3  4  1  0
  4  5  1  0
  5  6  2  0
  6  7  1  0
  7  8  1  0
  8  9  1  0
  9 10  1  0
 10 11  1  0
 11 12  1  0
  7 13  2  0
 13 14  1  0
 14 15  1  0
 15 16  2  0
 16 17  1  0
 17 18  2  0
 18 19  1  0
 19 20  2  0
  3 21  1  0
 21 22  2  0
 22 23  1  0
 23  2  1  0
 14  5  1  0
 20 15  1  0
 12  8  1  0
M  END
>  <cnnaffinity>  (159) 
-6.38291

>  <filename>  (159) 
Cc1occc1Cc1nc(C2CCCC2)nn1-c1cccnc1

>  <enamine_id>  (159) 
PV-006854359198

$$$$

     RDKit          3D

 27 30  0  0  0  0  0  0  0  0999 V2000
    5.9997    6.0012   23.6291 C   0  0  0  0  0  0  0  0  0  0  0  0
    7.2548    5.2065   23.5199 C   0  0  0  0  0  0  0  0  0  0  0  0
    7.2660    3.9006   23.2952 N   0  0  0  0  0  0  0  0  0  0  0  0
    8.5723    3.5673   23.2372 N   0  0  0  0  0  0  0  0  0  0  0  0
    8.9673    2.2235   22.8568 C   0  0  0  0  0  0  0  0  0  0  0  0
    9.0424    2.0194   21.3375 C   0  0  0  0  0  0  0  0  0  0  0  0
    9.5287    0.6141   20.9455 C   0  0  0  0  0  0  0  0  0  0  0  0
    8.6328   -0.4758   21.4248 C   0  0  0  0  0  0  0  0  0  0  0  0
    8.8649   -1.2920   22.4328 N   0  0  0  0  0  0  0  0  0  0  0  0
    7.6895   -1.9564   22.5616 C   0  0  0  0  0  0  0  0  0  0  0  0
    7.4448   -2.9705   23.6385 C   0  0  2  0  0  0  0  0  0  0  0  0
    7.0811   -4.3547   23.0489 C   0  0  0  0  0  0  0  0  0  0  0  0
    6.5898   -5.3198   24.0951 C   0  0  0  0  0  0  0  0  0  0  0  0
    6.1621   -4.9457   25.3040 C   0  0  0  0  0  0  0  0  0  0  0  0
    6.1849   -3.5113   25.7782 C   0  0  0  0  0  0  0  0  0  0  0  0
    6.3540   -2.5061   24.6306 C   0  0  0  0  0  0  0  0  0  0  0  0
    6.7575   -1.6126   21.6908 N   0  0  0  0  0  0  0  0  0  0  0  0
    7.3719   -0.6671   20.9380 N   0  0  0  0  0  0  0  0  0  0  0  0
    6.6617    0.0056   19.9035 C   0  0  0  0  0  0  0  0  0  0  0  0
    5.4408    0.6400   20.1687 C   0  0  0  0  0  0  0  0  0  0  0  0
    4.8130    1.3083   19.1106 C   0  0  0  0  0  0  0  0  0  0  0  0
    5.4013    1.2958   17.8384 C   0  0  0  0  0  0  0  0  0  0  0  0
    6.5609    0.6743   17.5765 N   0  0  0  0  0  0  0  0  0  0  0  0
    7.1698    0.0555   18.5938 C   0  0  0  0  0  0  0  0  0  0  0  0
    9.3847    4.6465   23.4027 C   0  0  0  0  0  0  0  0  0  0  0  0
   10.8753    4.6028   23.3604 C   0  0  0  0  0  0  0  0  0  0  0  0
    8.5590    5.7234   23.6015 C   0  0  0  0  0  0  0  0  0  0  0  0
  1  2  1  0
  2  3  2  0
  3  4  1  0
  4  5  1  0
  5  6  1  0
  6  7  1  0
  7  8  1  0
  8  9  2  0
  9 10  1  0
 11 10  1  6
 11 12  1  0
 12 13  1  0
 13 14  2  0
 14 15  1  0
 15 16  1  0
 10 17  2  0
 17 18  1  0
 18 19  1  0
 19 20  2  0
 20 21  1  0
 21 22  2  0
 22 23  1  0
 23 24  2  0
  4 25  1  0
 25 26  1  0
 25 27  2  0
 27  2  1  0
 18  8  1  0
 24 19  1  0
 16 11  1  0
M  END
>  <cnnaffinity>  (160) 
-6.38188

>  <filename>  (160) 
Cc1cc(C)n(CCCc2nc(C3CC=CCC3)nn2-c2cccnc2)n1

>  <enamine_id>  (160) 
PV-007134078608

$$$$

     RDKit          3D

 25 28  0  0  0  0  0  0  0  0999 V2000
    7.6878   -4.3781   26.1597 C   0  0  0  0  0  0  0  0  0  0  0  0
    7.1591   -3.1514   26.1918 C   0  0  0  0  0  0  0  0  0  0  0  0
    7.1699   -2.2106   25.0077 C   0  0  0  0  0  0  0  0  0  0  0  0
    7.4386   -2.9538   23.6625 C   0  0  1  0  0  0  0  0  0  0  0  0
    7.6757   -1.9770   22.5520 C   0  0  0  0  0  0  0  0  0  0  0  0
    6.7394   -1.6088   21.7043 N   0  0  0  0  0  0  0  0  0  0  0  0
    7.3600   -0.6612   20.9502 N   0  0  0  0  0  0  0  0  0  0  0  0
    6.6635    0.0083   19.9037 C   0  0  0  0  0  0  0  0  0  0  0  0
    5.4438    0.6440   20.1612 C   0  0  0  0  0  0  0  0  0  0  0  0
    4.8119    1.3102   19.1071 C   0  0  0  0  0  0  0  0  0  0  0  0
    5.4000    1.2953   17.8371 C   0  0  0  0  0  0  0  0  0  0  0  0
    6.5565    0.6678   17.5776 N   0  0  0  0  0  0  0  0  0  0  0  0
    7.1696    0.0483   18.5921 C   0  0  0  0  0  0  0  0  0  0  0  0
    8.6313   -0.4843   21.4198 C   0  0  0  0  0  0  0  0  0  0  0  0
    9.5290    0.6104   20.9530 C   0  0  0  0  0  0  0  0  0  0  0  0
    9.0584    2.0084   21.3896 C   0  0  0  0  0  0  0  0  0  0  0  0
    8.9886    2.1747   22.9212 C   0  0  0  0  0  0  0  0  0  0  0  0
   10.2650    1.9803   23.5903 N   0  0  0  0  0  0  0  0  0  0  0  0
   10.6302    0.9079   24.3613 C   0  0  0  0  0  0  0  0  0  0  0  0
   11.9573    1.0351   24.7006 C   0  0  0  0  0  0  0  0  0  0  0  0
   12.4274    2.2210   24.0708 C   0  0  0  0  0  0  0  0  0  0  0  0
   11.3576    2.7830   23.4242 C   0  0  0  0  0  0  0  0  0  0  0  0
    8.8624   -1.3219   22.4086 N   0  0  0  0  0  0  0  0  0  0  0  0
    8.6118   -3.9465   23.8328 C   0  0  0  0  0  0  0  0  0  0  0  0
    8.2869   -4.9943   24.9132 C   0  0  0  0  0  0  0  0  0  0  0  0
  1  2  2  0
  2  3  1  0
  3  4  1  0
  4  5  1  6
  5  6  2  0
  6  7  1  0
  7  8  1  0
  8  9  2  0
  9 10  1  0
 10 11  2  0
 11 12  1  0
 12 13  2  0
  7 14  1  0
 14 15  1  0
 15 16  1  0
 16 17  1  0
 17 18  1  0
 18 19  1  0
 19 20  2  0
 20 21  1  0
 21 22  2  0
 14 23  2  0
  4 24  1  0
 24 25  1  0
 25  1  1  0
 23  5  1  0
 13  8  1  0
 22 18  1  0
M  END
>  <cnnaffinity>  (161) 
-6.37864

>  <filename>  (161) 
C1=CCC(c2nc(CCCn3cccc3)n(-c3cccnc3)n2)CC1

>  <enamine_id>  (161) 
PV-006805585632

$$$$

     RDKit          3D

 26 29  0  0  0  0  0  0  0  0999 V2000
   11.8194    1.6464   24.1813 C   0  0  0  0  0  0  0  0  0  0  0  0
   11.8416    1.9065   24.1002 C   0  0  0  0  0  0  0  0  0  0  0  0
   12.3831    0.7076   23.1723 C   0  0  0  0  0  0  0  0  0  0  0  0
   11.5835    0.0655   22.1475 C   0  0  0  0  0  0  0  0  0  0  0  0
   12.0684   -1.2801   21.4870 C   0  0  0  0  0  0  0  0  0  0  0  0
   10.4034    0.6720   21.6756 C   0  0  0  0  0  0  0  0  0  0  0  0
    9.5153   -0.0403   20.6300 C   0  0  0  0  0  0  0  0  0  0  0  0
    8.4686   -0.8883   21.2762 C   0  0  0  0  0  0  0  0  0  0  0  0
    8.6619   -1.6797   22.3126 N   0  0  0  0  0  0  0  0  0  0  0  0
    7.4326   -2.2134   22.5358 C   0  0  0  0  0  0  0  0  0  0  0  0
    7.1925   -3.1453   23.6707 C   0  0  2  0  0  0  0  0  0  0  0  0
    7.5050   -2.5966   25.0906 C   0  0  0  0  0  0  0  0  0  0  0  0
    7.9416   -3.8579   25.8699 C   0  0  0  0  0  0  0  0  0  0  0  0
    7.9732   -4.9241   24.9328 O   0  0  0  0  0  0  0  0  0  0  0  0
    8.1114   -4.3729   23.6415 C   0  0  0  0  0  0  0  0  0  0  0  0
    6.5027   -1.8405   21.6844 N   0  0  0  0  0  0  0  0  0  0  0  0
    7.1720   -0.9975   20.8521 N   0  0  0  0  0  0  0  0  0  0  0  0
    6.5007   -0.3207   19.7916 C   0  0  0  0  0  0  0  0  0  0  0  0
    5.3740    0.4623   20.0636 C   0  0  0  0  0  0  0  0  0  0  0  0
    4.8273    1.2142   19.0210 C   0  0  0  0  0  0  0  0  0  0  0  0
    5.3977    1.1283   17.7453 C   0  0  0  0  0  0  0  0  0  0  0  0
    6.4435    0.3367   17.4628 N   0  0  0  0  0  0  0  0  0  0  0  0
    6.9711   -0.3767   18.4658 C   0  0  0  0  0  0  0  0  0  0  0  0
    9.9999    1.8776   22.1867 C   0  0  0  0  0  0  0  0  0  0  0  0
    8.8489    2.7008   21.6087 C   0  0  0  0  0  0  0  0  0  0  0  0
   10.7582    2.4063   23.3589 C   0  0  0  0  0  0  0  0  0  0  0  0
  1  2  1  0
  2  3  2  0
  3  4  1  0
  4  5  1  0
  4  6  2  0
  6  7  1  0
  7  8  1  0
  8  9  2  0
  9 10  1  0
 11 10  1  6
 11 12  1  0
 12 13  1  0
 13 14  1  0
 14 15  1  0
 10 16  2  0
 16 17  1  0
 17 18  1  0
 18 19  2  0
 19 20  1  0
 20 21  2  0
 21 22  1  0
 22 23  2  0
  6 24  1  0
 24 25  1  0
 24 26  2  0
 26  2  1  0
 17  8  1  0
 23 18  1  0
 15 11  1  0
M  END
>  <cnnaffinity>  (162) 
-6.37855

>  <filename>  (162) 
Cc1cc(C)c(Cc2nc(C3CCOC3)nn2-c2cccnc2)c(C)c1

>  <enamine_id>  (162) 
PV-006776699535

$$$$

     RDKit          3D

 26 29  0  0  0  0  0  0  0  0999 V2000
    4.4204    3.2355   22.7550 Cl  0  0  0  0  0  0  0  0  0  0  0  0
    5.5685    3.5814   24.0171 C   0  0  0  0  0  0  0  0  0  0  0  0
    5.6040    4.8742   24.5402 C   0  0  0  0  0  0  0  0  0  0  0  0
    6.4584    5.2425   25.5020 N   0  0  0  0  0  0  0  0  0  0  0  0
    7.3227    4.3275   25.9574 C   0  0  0  0  0  0  0  0  0  0  0  0
    7.3638    3.0190   25.4720 C   0  0  0  0  0  0  0  0  0  0  0  0
    8.5987    1.9561   26.0859 Cl  0  0  0  0  0  0  0  0  0  0  0  0
    6.4560    2.5959   24.4823 C   0  0  0  0  0  0  0  0  0  0  0  0
    6.5251    1.2394   23.8539 C   0  0  0  0  0  0  0  0  0  0  0  0
    7.5071    1.2503   22.6650 C   0  0  0  0  0  0  0  0  0  0  0  0
    7.6823   -0.1171   22.1161 C   0  0  0  0  0  0  0  0  0  0  0  0
    8.2453   -1.0492   22.8549 N   0  0  0  0  0  0  0  0  0  0  0  0
    8.2928   -2.1176   22.0247 C   0  0  0  0  0  0  0  0  0  0  0  0
    8.8968   -3.3789   22.5295 C   0  0  2  0  0  0  0  0  0  0  0  0
    8.1560   -4.0657   23.7006 C   0  0  0  0  0  0  0  0  0  0  0  0
    9.2935   -4.8339   24.3758 C   0  0  0  0  0  0  0  0  0  0  0  0
   10.4825   -4.0989   24.1517 O   0  0  0  0  0  0  0  0  0  0  0  0
   10.2847   -3.1006   23.1698 C   0  0  0  0  0  0  0  0  0  0  0  0
    7.7987   -1.9157   20.8214 N   0  0  0  0  0  0  0  0  0  0  0  0
    7.3616   -0.6243   20.8936 N   0  0  0  0  0  0  0  0  0  0  0  0
    6.6381   -0.0027   19.8383 C   0  0  0  0  0  0  0  0  0  0  0  0
    5.4316    0.6613   20.0877 C   0  0  0  0  0  0  0  0  0  0  0  0
    4.8012    1.3152   19.0266 C   0  0  0  0  0  0  0  0  0  0  0  0
    5.4076    1.2980   17.7675 C   0  0  0  0  0  0  0  0  0  0  0  0
    6.5481    0.6316   17.5155 N   0  0  0  0  0  0  0  0  0  0  0  0
    7.1390   -0.0155   18.5245 C   0  0  0  0  0  0  0  0  0  0  0  0
  1  2  1  0
  2  3  2  0
  3  4  1  0
  4  5  2  0
  5  6  1  0
  6  7  1  0
  6  8  2  0
  8  9  1  0
  9 10  1  0
 10 11  1  0
 11 12  2  0
 12 13  1  0
 14 13  1  1
 14 15  1  0
 15 16  1  0
 16 17  1  0
 17 18  1  0
 13 19  2  0
 19 20  1  0
 20 21  1  0
 21 22  2  0
 22 23  1  0
 23 24  2  0
 24 25  1  0
 25 26  2  0
  8  2  1  0
 20 11  1  0
 26 21  1  0
 18 14  1  0
M  END
>  <cnnaffinity>  (163) 
-6.37651

>  <filename>  (163) 
Clc1cncc(Cl)c1CCc1nc(C2CCOC2)nn1-c1cccnc1

>  <enamine_id>  (163) 
PV-006863381589

$$$$

     RDKit          3D

 25 28  0  0  0  0  0  0  0  0999 V2000
    7.2710    6.6477   23.2605 C   0  0  0  0  0  0  0  0  0  0  0  0
    7.6672    5.3258   23.8723 C   0  0  0  0  0  0  0  0  0  0  0  0
    7.6174    5.1424   25.2566 C   0  0  0  0  0  0  0  0  0  0  0  0
    8.0098    3.9218   25.8173 C   0  0  0  0  0  0  0  0  0  0  0  0
    8.4524    2.8793   25.0043 C   0  0  0  0  0  0  0  0  0  0  0  0
    8.5089    3.0557   23.6067 C   0  0  0  0  0  0  0  0  0  0  0  0
    8.9671    1.9891   22.8909 O   0  0  0  0  0  0  0  0  0  0  0  0
    9.0377    2.0197   21.4676 C   0  0  0  0  0  0  0  0  0  0  0  0
    9.5147    0.6437   20.9961 C   0  0  0  0  0  0  0  0  0  0  0  0
    8.6310   -0.4565   21.4458 C   0  0  0  0  0  0  0  0  0  0  0  0
    8.8782   -1.2994   22.4267 N   0  0  0  0  0  0  0  0  0  0  0  0
    7.7008   -1.9575   22.5613 C   0  0  0  0  0  0  0  0  0  0  0  0
    7.4541   -2.9516   23.6440 C   0  0  0  0  0  0  0  0  0  0  0  0
    6.7450   -4.2666   23.2021 C   0  0  0  0  0  0  0  0  0  0  0  0
    5.5397   -3.9126   24.1058 C   0  0  0  0  0  0  0  0  0  0  0  0
    6.2534   -2.6296   24.5925 C   0  0  0  0  0  0  0  0  0  0  0  0
    6.7660   -1.6097   21.6949 N   0  0  0  0  0  0  0  0  0  0  0  0
    7.3745   -0.6546   20.9497 N   0  0  0  0  0  0  0  0  0  0  0  0
    6.6626    0.0095   19.9062 C   0  0  0  0  0  0  0  0  0  0  0  0
    5.4404    0.6395   20.1692 C   0  0  0  0  0  0  0  0  0  0  0  0
    4.8133    1.3077   19.1112 C   0  0  0  0  0  0  0  0  0  0  0  0
    5.4012    1.2958   17.8390 C   0  0  0  0  0  0  0  0  0  0  0  0
    6.5601    0.6724   17.5778 N   0  0  0  0  0  0  0  0  0  0  0  0
    7.1695    0.0529   18.5949 C   0  0  0  0  0  0  0  0  0  0  0  0
    8.1164    4.2788   23.0498 C   0  0  0  0  0  0  0  0  0  0  0  0
  1  2  1  0
  2  3  2  0
  3  4  1  0
  4  5  2  0
  5  6  1  0
  6  7  1  0
  7  8  1  0
  8  9  1  0
  9 10  1  0
 10 11  2  0
 11 12  1  0
 12 13  1  0
 13 14  1  0
 14 15  1  0
 15 16  1  0
 12 17  2  0
 17 18  1  0
 18 19  1  0
 19 20  2  0
 20 21  1  0
 21 22  2  0
 22 23  1  0
 23 24  2  0
  6 25  2  0
 25  2  1  0
 18 10  1  0
 24 19  1  0
 16 13  1  0
M  END
>  <cnnaffinity>  (164) 
-6.3746

>  <filename>  (164) 
Cc1cccc(OCCc2nc(C3CCC3)nn2-c2cccnc2)c1

>  <enamine_id>  (164) 
PV-007037028654

$$$$

     RDKit          3D

 27 30  0  0  0  0  0  0  0  0999 V2000
    9.8888   -3.3821   24.0626 O   0  0  0  0  0  0  0  0  0  0  0  0
   10.5099   -2.4875   23.5159 C   0  0  0  0  0  0  0  0  0  0  0  0
   10.2575   -1.0725   23.5880 C   0  0  0  0  0  0  0  0  0  0  0  0
   11.0736   -0.2020   22.9301 C   0  0  0  0  0  0  0  0  0  0  0  0
   10.7161    1.1740   22.8268 N   0  0  0  0  0  0  0  0  0  0  0  0
   11.6393    2.1637   22.9356 N   0  0  0  0  0  0  0  0  0  0  0  0
   10.9228    3.2630   22.7703 C   0  0  0  0  0  0  0  0  0  0  0  0
   11.5621    4.6234   22.7304 C   0  0  1  0  0  0  0  0  0  0  0  0
   12.2118    5.0352   24.0837 C   0  0  0  0  0  0  0  0  0  0  0  0
   12.8594    6.3974   23.9784 C   0  0  0  0  0  0  0  0  0  0  0  0
   13.5622    6.6857   22.8839 C   0  0  0  0  0  0  0  0  0  0  0  0
   13.8447    5.5666   21.9040 C   0  0  0  0  0  0  0  0  0  0  0  0
   12.5878    4.7394   21.5474 C   0  0  0  0  0  0  0  0  0  0  0  0
    9.6000    3.0418   22.5708 N   0  0  0  0  0  0  0  0  0  0  0  0
    9.5039    1.7231   22.5536 C   0  0  0  0  0  0  0  0  0  0  0  0
    8.2397    0.9640   22.2594 C   0  0  0  0  0  0  0  0  0  0  0  0
    8.4854   -0.1340   21.3911 O   0  0  0  0  0  0  0  0  0  0  0  0
    7.3225   -0.8331   20.9674 C   0  0  0  0  0  0  0  0  0  0  0  0
    6.5879   -0.0724   19.8917 C   0  0  0  0  0  0  0  0  0  0  0  0
    5.3776    0.5951   20.1115 C   0  0  0  0  0  0  0  0  0  0  0  0
    4.8032    1.3043   19.0543 C   0  0  0  0  0  0  0  0  0  0  0  0
    5.4633    1.3174   17.8237 C   0  0  0  0  0  0  0  0  0  0  0  0
    6.6319    0.6959   17.5976 N   0  0  0  0  0  0  0  0  0  0  0  0
    7.1782    0.0349   18.6236 C   0  0  0  0  0  0  0  0  0  0  0  0
   12.2593   -0.6412   22.2580 C   0  0  0  0  0  0  0  0  0  0  0  0
   12.4607   -1.9714   22.1148 C   0  0  0  0  0  0  0  0  0  0  0  0
   11.5858   -2.8405   22.7000 N   0  0  0  0  0  0  0  0  0  0  0  0
  1  2  2  0
  2  3  1  0
  3  4  2  0
  4  5  1  0
  5  6  1  0
  6  7  2  0
  8  7  1  1
  8  9  1  0
  9 10  1  0
 10 11  2  0
 11 12  1  0
 12 13  1  0
  7 14  1  0
 14 15  2  0
 15 16  1  0
 16 17  1  0
 17 18  1  0
 18 19  1  0
 19 20  2  0
 20 21  1  0
 21 22  2  0
 22 23  1  0
 23 24  2  0
  4 25  1  0
 25 26  2  0
 26 27  1  0
 27  2  1  0
 15  5  1  0
 24 19  1  0
 13  8  1  0
M  END
>  <cnnaffinity>  (165) 
-6.37237

>  <filename>  (165) 
O=c1cc(-n2nc(C3CC=CCC3)nc2COCc2cccnc2)cc[nH]1

>  <enamine_id>  (165) 
PV-006762073170

$$$$

     RDKit          3D

 28 31  0  0  0  0  0  0  0  0999 V2000
   10.5227    4.6659   22.9636 O   0  0  0  0  0  0  0  0  0  0  0  0
    9.3698    4.6028   23.3118 C   0  0  0  0  0  0  0  0  0  0  0  0
    8.6701    5.6730   23.7792 O   0  0  0  0  0  0  0  0  0  0  0  0
    7.3761    5.2784   24.2356 C   0  0  0  0  0  0  0  0  0  0  0  0
    7.2921    3.7572   24.0045 C   0  0  0  0  0  0  0  0  0  0  0  0
    8.5595    3.4962   23.3594 N   0  0  0  0  0  0  0  0  0  0  0  0
    9.0354    2.1931   22.9502 C   0  0  0  0  0  0  0  0  0  0  0  0
    9.0585    2.0613   21.4246 C   0  0  0  0  0  0  0  0  0  0  0  0
    9.5185    0.6661   20.9572 C   0  0  0  0  0  0  0  0  0  0  0  0
    8.6380   -0.4454   21.4392 C   0  0  0  0  0  0  0  0  0  0  0  0
    8.8651   -1.2477   22.4637 N   0  0  0  0  0  0  0  0  0  0  0  0
    7.6937   -1.9271   22.6042 C   0  0  0  0  0  0  0  0  0  0  0  0
    7.3759   -2.9313   23.6873 C   0  0  0  0  0  0  0  0  0  0  0  0
    6.6581   -2.2390   24.8838 C   0  0  0  0  0  0  0  0  0  0  0  0
    7.6437   -1.3805   25.6916 C   0  0  0  0  0  0  0  0  0  0  0  0
    8.7978   -2.2321   26.1987 C   0  0  0  0  0  0  0  0  0  0  0  0
    8.2982   -3.1950   27.0499 F   0  0  0  0  0  0  0  0  0  0  0  0
    9.6337   -1.4582   26.9559 F   0  0  0  0  0  0  0  0  0  0  0  0
    9.5612   -2.9191   25.0741 C   0  0  0  0  0  0  0  0  0  0  0  0
    8.6090   -3.7339   24.1736 C   0  0  0  0  0  0  0  0  0  0  0  0
    6.7627   -1.5916   21.7325 N   0  0  0  0  0  0  0  0  0  0  0  0
    7.3807   -0.6617   20.9567 N   0  0  0  0  0  0  0  0  0  0  0  0
    6.6746   -0.0242   19.9003 C   0  0  0  0  0  0  0  0  0  0  0  0
    5.4550    0.6098   20.1564 C   0  0  0  0  0  0  0  0  0  0  0  0
    4.8375    1.2932   19.1056 C   0  0  0  0  0  0  0  0  0  0  0  0
    5.4358    1.2946   17.8388 C   0  0  0  0  0  0  0  0  0  0  0  0
    6.5747    0.6367   17.5727 N   0  0  0  0  0  0  0  0  0  0  0  0
    7.1692   -0.0079   18.5831 C   0  0  0  0  0  0  0  0  0  0  0  0
  1  2  2  0
  2  3  1  0
  3  4  1  0
  4  5  1  0
  5  6  1  0
  6  7  1  0
  7  8  1  0
  8  9  1  0
  9 10  1  0
 10 11  2  0
 11 12  1  0
 12 13  1  0
 13 14  1  0
 14 15  1  0
 15 16  1  0
 16 17  1  0
 16 18  1  0
 16 19  1  0
 19 20  1  0
 12 21  2  0
 21 22  1  0
 22 23  1  0
 23 24  2  0
 24 25  1  0
 25 26  2  0
 26 27  1  0
 27 28  2  0
  6  2  1  0
 22 10  1  0
 28 23  1  0
 20 13  1  0
M  END
>  <cnnaffinity>  (166) 
-6.37129

>  <filename>  (166) 
O=C1OCCN1CCCc1nc(C2CCC(F)(F)CC2)nn1-c1cccnc1

>  <enamine_id>  (166) 
PV-006898735916

$$$$

     RDKit          3D

 24 27  0  0  0  0  0  0  0  0999 V2000
   12.9614    1.9616   24.1584 F   0  0  0  0  0  0  0  0  0  0  0  0
   12.1322    1.5138   23.2061 C   0  0  0  0  0  0  0  0  0  0  0  0
   12.5084    0.3941   22.4713 C   0  0  0  0  0  0  0  0  0  0  0  0
   11.6211   -0.0902   21.5061 C   0  0  0  0  0  0  0  0  0  0  0  0
   10.4093    0.5585   21.2694 C   0  0  0  0  0  0  0  0  0  0  0  0
   10.0516    1.6878   22.0192 C   0  0  0  0  0  0  0  0  0  0  0  0
    8.4679    2.4748   21.7538 S   0  0  0  0  0  0  0  0  0  0  0  0
    7.3753    1.3653   22.7319 C   0  0  0  0  0  0  0  0  0  0  0  0
    7.4405   -0.0681   22.2945 C   0  0  0  0  0  0  0  0  0  0  0  0
    7.9567   -1.0199   23.0476 N   0  0  0  0  0  0  0  0  0  0  0  0
    8.2438   -1.9904   22.1477 C   0  0  0  0  0  0  0  0  0  0  0  0
    9.0757   -3.1723   22.4871 C   0  0  0  0  0  0  0  0  0  0  0  0
    8.6571   -4.0072   23.7217 C   0  0  0  0  0  0  0  0  0  0  0  0
   10.3144   -3.8333   24.4696 S   0  0  0  0  0  0  0  0  0  0  0  0
   10.5001   -2.7919   22.9889 C   0  0  0  0  0  0  0  0  0  0  0  0
    7.8934   -1.7338   20.9083 N   0  0  0  0  0  0  0  0  0  0  0  0
    7.3234   -0.5030   21.0080 N   0  0  0  0  0  0  0  0  0  0  0  0
    6.6261    0.0613   19.9067 C   0  0  0  0  0  0  0  0  0  0  0  0
    5.3972    0.6936   20.1101 C   0  0  0  0  0  0  0  0  0  0  0  0
    4.8015    1.3266   19.0189 C   0  0  0  0  0  0  0  0  0  0  0  0
    5.4363    1.2792   17.7738 C   0  0  0  0  0  0  0  0  0  0  0  0
    6.5753    0.5941   17.5583 N   0  0  0  0  0  0  0  0  0  0  0  0
    7.1447   -0.0199   18.6026 C   0  0  0  0  0  0  0  0  0  0  0  0
   10.9221    2.1731   23.0034 C   0  0  0  0  0  0  0  0  0  0  0  0
  1  2  1  0
  2  3  2  0
  3  4  1  0
  4  5  2  0
  5  6  1  0
  6  7  1  0
  7  8  1  0
  8  9  1  0
  9 10  2  0
 10 11  1  0
 11 12  1  0
 12 13  1  0
 13 14  1  0
 14 15  1  0
 11 16  2  0
 16 17  1  0
 17 18  1  0
 18 19  2  0
 19 20  1  0
 20 21  2  0
 21 22  1  0
 22 23  2  0
  6 24  2  0
 24  2  1  0
 17  9  1  0
 23 18  1  0
 15 12  1  0
M  END
>  <cnnaffinity>  (167) 
-6.37085

>  <filename>  (167) 
Fc1cccc(SCc2nc(C3CSC3)nn2-c2cccnc2)c1

>  <enamine_id>  (167) 
PV-006788108599

$$$$

     RDKit          3D

 25 28  0  0  0  0  0  0  0  0999 V2000
   11.2572    2.7454   23.3132 C   0  0  0  0  0  0  0  0  0  0  0  0
    9.8854    2.3413   23.8112 C   0  0  0  0  0  0  0  0  0  0  0  0
    9.6479    2.1635   25.1795 C   0  0  0  0  0  0  0  0  0  0  0  0
    8.3418    1.9597   25.6330 C   0  0  0  0  0  0  0  0  0  0  0  0
    7.3384    1.8279   24.6795 C   0  0  0  0  0  0  0  0  0  0  0  0
    7.5388    1.9227   23.3586 N   0  0  0  0  0  0  0  0  0  0  0  0
    8.7943    2.1357   22.9264 C   0  0  0  0  0  0  0  0  0  0  0  0
    9.0022    2.0244   21.4244 C   0  0  0  0  0  0  0  0  0  0  0  0
    9.5112    0.6264   20.9537 C   0  0  0  0  0  0  0  0  0  0  0  0
    8.6492   -0.5262   21.3687 C   0  0  0  0  0  0  0  0  0  0  0  0
    8.9061   -1.3914   22.3332 N   0  0  0  0  0  0  0  0  0  0  0  0
    7.6926   -1.9634   22.5691 C   0  0  0  0  0  0  0  0  0  0  0  0
    7.4025   -2.8967   23.7177 C   0  0  0  0  0  0  0  0  0  0  0  0
    7.0865   -2.1466   25.0399 C   0  0  0  0  0  0  0  0  0  0  0  0
    8.4575   -1.8876   25.6846 C   0  0  0  0  0  0  0  0  0  0  0  0
    9.3885   -3.0138   25.1824 C   0  0  0  0  0  0  0  0  0  0  0  0
    8.6055   -3.7863   24.0954 C   0  0  0  0  0  0  0  0  0  0  0  0
    6.7340   -1.5666   21.7532 N   0  0  0  0  0  0  0  0  0  0  0  0
    7.3598   -0.6641   20.9497 N   0  0  0  0  0  0  0  0  0  0  0  0
    6.6606   -0.0124   19.8930 C   0  0  0  0  0  0  0  0  0  0  0  0
    5.4437    0.6298   20.1521 C   0  0  0  0  0  0  0  0  0  0  0  0
    4.8162    1.3067   19.1038 C   0  0  0  0  0  0  0  0  0  0  0  0
    5.4132    1.2984   17.8377 C   0  0  0  0  0  0  0  0  0  0  0  0
    6.5635    0.6598   17.5714 N   0  0  0  0  0  0  0  0  0  0  0  0
    7.1702    0.0234   18.5809 C   0  0  0  0  0  0  0  0  0  0  0  0
  1  2  1  0
  2  3  2  0
  3  4  1  0
  4  5  2  0
  5  6  1  0
  6  7  2  0
  7  8  1  0
  8  9  1  0
  9 10  1  0
 10 11  2  0
 11 12  1  0
 12 13  1  0
 13 14  1  0
 14 15  1  0
 15 16  1  0
 16 17  1  0
 12 18  2  0
 18 19  1  0
 19 20  1  0
 20 21  2  0
 21 22  1  0
 22 23  2  0
 23 24  1  0
 24 25  2  0
  7  2  1  0
 19 10  1  0
 25 20  1  0
 17 13  1  0
M  END
>  <cnnaffinity>  (168) 
-6.36969

>  <filename>  (168) 
Cc1cccnc1CCc1nc(C2CCCC2)nn1-c1cccnc1

>  <enamine_id>  (168) 
PV-006993433792

$$$$

     RDKit          3D

 24 27  0  0  0  0  0  0  0  0999 V2000
    9.6553    2.1427   21.0255 C   0  0  0  0  0  0  0  0  0  0  0  0
    9.7831    2.1619   22.5174 C   0  0  0  0  0  0  0  0  0  0  0  0
   10.9685    2.6109   23.1054 C   0  0  0  0  0  0  0  0  0  0  0  0
   11.1042    2.5437   24.4914 C   0  0  0  0  0  0  0  0  0  0  0  0
   10.0401    2.0470   25.2408 C   0  0  0  0  0  0  0  0  0  0  0  0
    8.8732    1.6684   24.7032 N   0  0  0  0  0  0  0  0  0  0  0  0
    8.7357    1.7381   23.3754 C   0  0  0  0  0  0  0  0  0  0  0  0
    7.3974    1.2907   22.8188 C   0  0  0  0  0  0  0  0  0  0  0  0
    7.5499   -0.0801   22.2491 C   0  0  0  0  0  0  0  0  0  0  0  0
    8.0993   -1.0308   22.9644 N   0  0  0  0  0  0  0  0  0  0  0  0
    8.2493   -2.0566   22.0952 C   0  0  0  0  0  0  0  0  0  0  0  0
    8.8916   -3.3065   22.5861 C   0  0  2  0  0  0  0  0  0  0  0  0
    8.1456   -4.0155   23.7391 C   0  0  0  0  0  0  0  0  0  0  0  0
    9.2698   -4.7775   24.4436 C   0  0  0  0  0  0  0  0  0  0  0  0
   10.4608   -4.0454   24.1951 O   0  0  0  0  0  0  0  0  0  0  0  0
   10.2534   -3.0157   23.2438 C   0  0  0  0  0  0  0  0  0  0  0  0
    7.8212   -1.8150   20.8723 N   0  0  0  0  0  0  0  0  0  0  0  0
    7.3202   -0.5461   20.9788 N   0  0  0  0  0  0  0  0  0  0  0  0
    6.6156    0.0488   19.8946 C   0  0  0  0  0  0  0  0  0  0  0  0
    5.3983    0.7107   20.1100 C   0  0  0  0  0  0  0  0  0  0  0  0
    4.7972    1.3485   19.0215 C   0  0  0  0  0  0  0  0  0  0  0  0
    5.4240    1.3037   17.7743 C   0  0  0  0  0  0  0  0  0  0  0  0
    6.5647    0.6272   17.5523 N   0  0  0  0  0  0  0  0  0  0  0  0
    7.1316   -0.0038   18.5865 C   0  0  0  0  0  0  0  0  0  0  0  0
  1  2  1  0
  2  3  2  0
  3  4  1  0
  4  5  2  0
  5  6  1  0
  6  7  2  0
  7  8  1  0
  8  9  1  0
  9 10  2  0
 10 11  1  0
 12 11  1  1
 12 13  1  0
 13 14  1  0
 14 15  1  0
 15 16  1  0
 11 17  2  0
 17 18  1  0
 18 19  1  0
 19 20  2  0
 20 21  1  0
 21 22  2  0
 22 23  1  0
 23 24  2  0
  7  2  1  0
 18  9  1  0
 24 19  1  0
 16 12  1  0
M  END
>  <cnnaffinity>  (169) 
-6.36943

>  <filename>  (169) 
Cc1cccnc1Cc1nc(C2CCOC2)nn1-c1cccnc1

>  <enamine_id>  (169) 
PV-007065935870

$$$$

     RDKit          3D

 25 28  0  0  0  0  0  0  0  0999 V2000
   14.2090    5.2990   21.3020 F   0  0  0  0  0  0  0  0  0  0  0  0
   13.5009    4.2783   21.8092 C   0  0  0  0  0  0  0  0  0  0  0  0
   13.9016    3.7263   23.0246 C   0  0  0  0  0  0  0  0  0  0  0  0
   13.1923    2.6358   23.5270 C   0  0  0  0  0  0  0  0  0  0  0  0
   12.0169    2.2060   22.8990 C   0  0  0  0  0  0  0  0  0  0  0  0
   11.6083    2.8369   21.7149 C   0  0  0  0  0  0  0  0  0  0  0  0
   10.4569    2.5879   21.0424 O   0  0  0  0  0  0  0  0  0  0  0  0
    9.3934    1.8441   21.5968 C   0  0  0  0  0  0  0  0  0  0  0  0
    9.5533    0.4473   21.0058 C   0  0  0  0  0  0  0  0  0  0  0  0
    8.5685   -0.5635   21.4470 C   0  0  0  0  0  0  0  0  0  0  0  0
    8.7727   -1.3816   22.4516 N   0  0  0  0  0  0  0  0  0  0  0  0
    7.5973   -2.0609   22.5480 C   0  0  0  0  0  0  0  0  0  0  0  0
    7.4008   -3.0833   23.6166 C   0  0  0  0  0  0  0  0  0  0  0  0
    8.5616   -4.1181   23.7967 C   0  0  0  0  0  0  0  0  0  0  0  0
    8.8290   -3.5798   25.2225 C   0  0  0  0  0  0  0  0  0  0  0  0
    7.6610   -2.5767   25.0761 C   0  0  0  0  0  0  0  0  0  0  0  0
    6.6845   -1.7122   21.6656 N   0  0  0  0  0  0  0  0  0  0  0  0
    7.3174   -0.7523   20.9305 N   0  0  0  0  0  0  0  0  0  0  0  0
    6.6363   -0.0684   19.8753 C   0  0  0  0  0  0  0  0  0  0  0  0
    5.4324    0.5983   20.1311 C   0  0  0  0  0  0  0  0  0  0  0  0
    4.8322    1.3061   19.0832 C   0  0  0  0  0  0  0  0  0  0  0  0
    5.4452    1.3003   17.8256 C   0  0  0  0  0  0  0  0  0  0  0  0
    6.5777    0.6298   17.5609 N   0  0  0  0  0  0  0  0  0  0  0  0
    7.1518   -0.0424   18.5672 C   0  0  0  0  0  0  0  0  0  0  0  0
   12.4020    3.8201   21.1144 C   0  0  0  0  0  0  0  0  0  0  0  0
  1  2  1  0
  2  3  2  0
  3  4  1  0
  4  5  2  0
  5  6  1  0
  6  7  1  0
  7  8  1  0
  8  9  1  0
  9 10  1  0
 10 11  2  0
 11 12  1  0
 12 13  1  0
 13 14  1  0
 14 15  1  0
 15 16  1  0
 12 17  2  0
 17 18  1  0
 18 19  1  0
 19 20  2  0
 20 21  1  0
 21 22  2  0
 22 23  1  0
 23 24  2  0
  6 25  2  0
 25  2  1  0
 18 10  1  0
 24 19  1  0
 16 13  1  0
M  END
>  <cnnaffinity>  (170) 
-6.36703

>  <filename>  (170) 
Fc1cccc(OCCc2nc(C3CCC3)nn2-c2cccnc2)c1

>  <enamine_id>  (170) 
PV-006862529630

$$$$

     RDKit          3D

 25 28  0  0  0  0  0  0  0  0999 V2000
    4.8140    1.2196   18.9898 C   0  0  0  0  0  0  0  0  0  0  0  0
    5.4214    1.1692   17.7290 C   0  0  0  0  0  0  0  0  0  0  0  0
    6.5011    0.4170   17.4676 N   0  0  0  0  0  0  0  0  0  0  0  0
    7.0277   -0.2874   18.4779 C   0  0  0  0  0  0  0  0  0  0  0  0
    6.5196   -0.2698   19.7909 C   0  0  0  0  0  0  0  0  0  0  0  0
    7.1831   -0.9500   20.8579 N   0  0  0  0  0  0  0  0  0  0  0  0
    6.5280   -1.8786   21.6018 N   0  0  0  0  0  0  0  0  0  0  0  0
    7.4209   -2.2127   22.5162 C   0  0  0  0  0  0  0  0  0  0  0  0
    7.1747   -3.2038   23.6284 C   0  0  0  0  0  0  0  0  0  0  0  0
    6.2655   -2.6473   24.7615 C   0  0  0  0  0  0  0  0  0  0  0  0
    6.0324   -3.7157   25.8336 C   0  0  0  0  0  0  0  0  0  0  0  0
    5.4871   -4.9003   25.2786 O   0  0  0  0  0  0  0  0  0  0  0  0
    6.3372   -5.4931   24.3131 C   0  0  0  0  0  0  0  0  0  0  0  0
    6.6064   -4.5553   23.1326 C   0  0  0  0  0  0  0  0  0  0  0  0
    8.6009   -1.5512   22.4248 N   0  0  0  0  0  0  0  0  0  0  0  0
    8.4241   -0.7431   21.3991 C   0  0  0  0  0  0  0  0  0  0  0  0
    9.4181    0.2402   20.8755 C   0  0  0  0  0  0  0  0  0  0  0  0
   10.4154    0.7652   21.9202 C   0  0  0  0  0  0  0  0  0  0  0  0
   11.1507    1.9946   21.3391 C   0  0  0  0  0  0  0  0  0  0  0  0
   12.1944    2.6610   22.0867 C   0  0  0  0  0  0  0  0  0  0  0  0
   13.6738    2.1991   23.3411 C   0  0  0  0  0  0  0  0  0  0  0  0
   13.4695    2.4753   23.4194 C   0  0  0  0  0  0  0  0  0  0  0  0
   13.9245    3.9548   23.0924 C   0  0  0  0  0  0  0  0  0  0  0  0
   12.7784    4.3509   21.8001 S   0  0  0  0  0  0  0  0  0  0  0  0
    5.3549    0.4690   20.0381 C   0  0  0  0  0  0  0  0  0  0  0  0
  1  2  2  0
  2  3  1  0
  3  4  2  0
  4  5  1  0
  5  6  1  0
  6  7  1  0
  7  8  2  0
  8  9  1  0
  9 10  1  0
 10 11  1  0
 11 12  1  0
 12 13  1  0
 13 14  1  0
  8 15  1  0
 15 16  2  0
 16 17  1  0
 17 18  1  0
 18 19  1  0
 19 20  1  0
 20 21  2  0
 21 22  1  0
 22 23  2  0
 23 24  1  0
  5 25  2  0
 25  1  1  0
 16  6  1  0
 24 20  1  0
 14  9  1  0
M  END
>  <cnnaffinity>  (171) 
-6.36582

>  <filename>  (171) 
c1cncc(-n2nc(C3CCOCC3)nc2CCCc2cccs2)c1

>  <enamine_id>  (171) 
PV-007121532312

$$$$

     RDKit          3D

 24 27  0  0  0  0  0  0  0  0999 V2000
   12.1559   -1.5757   21.1958 Cl  0  0  0  0  0  0  0  0  0  0  0  0
   11.8563   -0.0475   21.9688 C   0  0  0  0  0  0  0  0  0  0  0  0
   12.7602    0.3724   22.9483 C   0  0  0  0  0  0  0  0  0  0  0  0
   12.5229    1.5692   23.6229 C   0  0  0  0  0  0  0  0  0  0  0  0
   11.3873    2.3326   23.3358 C   0  0  0  0  0  0  0  0  0  0  0  0
   10.4955    1.8947   22.3545 C   0  0  0  0  0  0  0  0  0  0  0  0
   10.7195    0.7096   21.6388 C   0  0  0  0  0  0  0  0  0  0  0  0
    9.6573    0.2231   20.6754 C   0  0  0  0  0  0  0  0  0  0  0  0
    8.6299   -0.6354   21.3363 C   0  0  0  0  0  0  0  0  0  0  0  0
    8.8434   -1.4877   22.3132 N   0  0  0  0  0  0  0  0  0  0  0  0
    7.6107   -2.0040   22.5411 C   0  0  0  0  0  0  0  0  0  0  0  0
    7.3896   -2.9745   23.6424 C   0  0  2  0  0  0  0  0  0  0  0  0
    7.7377   -2.4471   25.0513 C   0  0  0  0  0  0  0  0  0  0  0  0
    8.1114   -3.7174   25.8176 C   0  0  0  0  0  0  0  0  0  0  0  0
    8.4295   -4.7029   24.8473 O   0  0  0  0  0  0  0  0  0  0  0  0
    8.2709   -4.2258   23.5273 C   0  0  0  0  0  0  0  0  0  0  0  0
    6.6636   -1.5617   21.7456 N   0  0  0  0  0  0  0  0  0  0  0  0
    7.3255   -0.6939   20.9364 N   0  0  0  0  0  0  0  0  0  0  0  0
    6.6498    0.0032   19.9002 C   0  0  0  0  0  0  0  0  0  0  0  0
    5.4361    0.6464   20.1659 C   0  0  0  0  0  0  0  0  0  0  0  0
    4.8121    1.3120   19.1091 C   0  0  0  0  0  0  0  0  0  0  0  0
    5.4027    1.2949   17.8369 C   0  0  0  0  0  0  0  0  0  0  0  0
    6.5602    0.6724   17.5788 N   0  0  0  0  0  0  0  0  0  0  0  0
    7.1670    0.0522   18.5928 C   0  0  0  0  0  0  0  0  0  0  0  0
  1  2  1  0
  2  3  2  0
  3  4  1  0
  4  5  2  0
  5  6  1  0
  6  7  2  0
  7  8  1  0
  8  9  1  0
  9 10  2  0
 10 11  1  0
 12 11  1  6
 12 13  1  0
 13 14  1  0
 14 15  1  0
 15 16  1  0
 11 17  2  0
 17 18  1  0
 18 19  1  0
 19 20  2  0
 20 21  1  0
 21 22  2  0
 22 23  1  0
 23 24  2  0
  7  2  1  0
 18  9  1  0
 24 19  1  0
 16 12  1  0
M  END
>  <cnnaffinity>  (172) 
-6.36553

>  <filename>  (172) 
Clc1ccccc1Cc1nc(C2CCOC2)nn1-c1cccnc1

>  <enamine_id>  (172) 
PV-006895099944

$$$$

     RDKit          3D

 25 28  0  0  0  0  0  0  0  0999 V2000
    8.1556    2.5075   21.7183 C   0  0  0  0  0  0  0  0  0  0  0  0
    9.4946    1.8033   21.8745 C   0  0  2  0  0  0  0  0  0  0  0  0
    9.5759    0.5271   20.9951 C   0  0  0  0  0  0  0  0  0  0  0  0
    8.6240   -0.5505   21.3879 C   0  0  0  0  0  0  0  0  0  0  0  0
    8.8539   -1.4266   22.3407 N   0  0  0  0  0  0  0  0  0  0  0  0
    7.6537   -2.0500   22.4907 C   0  0  0  0  0  0  0  0  0  0  0  0
    7.4301   -3.0828   23.5560 C   0  0  0  0  0  0  0  0  0  0  0  0
    8.4238   -4.2676   23.4125 C   0  0  0  0  0  0  0  0  0  0  0  0
    8.2049   -5.3171   24.5170 C   0  0  0  0  0  0  0  0  0  0  0  0
    8.2919   -4.6948   25.9233 C   0  0  0  0  0  0  0  0  0  0  0  0
    7.3153   -3.5137   26.0774 C   0  0  0  0  0  0  0  0  0  0  0  0
    7.5332   -2.4607   24.9775 C   0  0  0  0  0  0  0  0  0  0  0  0
    6.7094   -1.6373   21.6699 N   0  0  0  0  0  0  0  0  0  0  0  0
    7.3441   -0.6925   20.9223 N   0  0  0  0  0  0  0  0  0  0  0  0
    6.6514   -0.0036   19.8913 C   0  0  0  0  0  0  0  0  0  0  0  0
    5.4380    0.6395   20.1549 C   0  0  0  0  0  0  0  0  0  0  0  0
    4.8082    1.3128   19.1030 C   0  0  0  0  0  0  0  0  0  0  0  0
    5.3947    1.2996   17.8327 C   0  0  0  0  0  0  0  0  0  0  0  0
    6.5482    0.6681   17.5693 N   0  0  0  0  0  0  0  0  0  0  0  0
    7.1601    0.0418   18.5809 C   0  0  0  0  0  0  0  0  0  0  0  0
    9.7787    1.5242   23.2779 N   0  0  0  0  0  0  0  0  0  0  0  0
    8.8796    1.1405   24.2533 C   0  0  0  0  0  0  0  0  0  0  0  0
    9.6338    0.8637   25.3586 C   0  0  0  0  0  0  0  0  0  0  0  0
   10.9678    1.0409   25.0933 N   0  0  0  0  0  0  0  0  0  0  0  0
   11.0161    1.4266   23.8441 C   0  0  0  0  0  0  0  0  0  0  0  0
  2  1  1  1
  2  3  1  0
  3  4  1  0
  4  5  2  0
  5  6  1  0
  6  7  1  0
  7  8  1  0
  8  9  1  0
  9 10  1  0
 10 11  1  0
 11 12  1  0
  6 13  2  0
 13 14  1  0
 14 15  1  0
 15 16  2  0
 16 17  1  0
 17 18  2  0
 18 19  1  0
 19 20  2  0
  2 21  1  0
 21 22  1  0
 22 23  2  0
 23 24  1  0
 24 25  2  0
 14  4  1  0
 20 15  1  0
 25 21  1  0
 12  7  1  0
M  END
>  <cnnaffinity>  (173) 
-6.36387

>  <filename>  (173) 
CC(Cc1nc(C2CCCCC2)nn1-c1cccnc1)n1ccnc1

>  <enamine_id>  (173) 
PV-006931994733

$$$$

     RDKit          3D

 27 30  0  0  0  0  0  0  0  0999 V2000
    6.6471    6.0180   21.2435 F   0  0  0  0  0  0  0  0  0  0  0  0
    6.7768    4.8292   21.8316 C   0  0  0  0  0  0  0  0  0  0  0  0
    8.0616    4.3823   22.1435 C   0  0  0  0  0  0  0  0  0  0  0  0
    8.2010    3.1545   22.7836 C   0  0  0  0  0  0  0  0  0  0  0  0
    7.0288    2.4358   23.0722 C   0  0  0  0  0  0  0  0  0  0  0  0
    7.0005    1.2439   23.8323 N   0  0  0  0  0  0  0  0  0  0  0  0
    6.0596    1.1334   24.8020 N   0  0  0  0  0  0  0  0  0  0  0  0
    6.4267    0.0613   25.4669 C   0  0  0  0  0  0  0  0  0  0  0  0
    5.6603   -0.4099   26.6656 C   0  0  2  0  0  0  0  0  0  0  0  0
    6.5343   -0.4447   27.9432 C   0  0  0  0  0  0  0  0  0  0  0  0
    5.7718   -1.0320   29.1102 C   0  0  0  0  0  0  0  0  0  0  0  0
    4.7801   -1.9092   28.9677 C   0  0  0  0  0  0  0  0  0  0  0  0
    4.1784   -2.2742   27.6305 C   0  0  0  0  0  0  0  0  0  0  0  0
    5.0302   -1.8074   26.4331 C   0  0  0  0  0  0  0  0  0  0  0  0
    7.5246   -0.5715   24.9575 N   0  0  0  0  0  0  0  0  0  0  0  0
    7.8380    0.1726   23.9070 C   0  0  0  0  0  0  0  0  0  0  0  0
    8.8472   -0.1330   22.8291 C   0  0  0  0  0  0  0  0  0  0  0  0
    8.3954    0.1623   21.5170 O   0  0  0  0  0  0  0  0  0  0  0  0
    7.3934   -0.7098   20.9906 C   0  0  0  0  0  0  0  0  0  0  0  0
    6.6537    0.0206   19.8973 C   0  0  0  0  0  0  0  0  0  0  0  0
    5.4347    0.6742   20.1206 C   0  0  0  0  0  0  0  0  0  0  0  0
    4.8310    1.3563   19.0604 C   0  0  0  0  0  0  0  0  0  0  0  0
    5.4670    1.3447   17.8142 C   0  0  0  0  0  0  0  0  0  0  0  0
    6.6314    0.7210   17.5776 N   0  0  0  0  0  0  0  0  0  0  0  0
    7.2044    0.0892   18.6103 C   0  0  0  0  0  0  0  0  0  0  0  0
    5.7922    3.0026   22.7210 C   0  0  0  0  0  0  0  0  0  0  0  0
    5.6658    4.1853   22.1153 N   0  0  0  0  0  0  0  0  0  0  0  0
  1  2  1  0
  2  3  2  0
  3  4  1  0
  4  5  2  0
  5  6  1  0
  6  7  1  0
  7  8  2  0
  9  8  1  6
  9 10  1  0
 10 11  1  0
 11 12  2  0
 12 13  1  0
 13 14  1  0
  8 15  1  0
 15 16  2  0
 16 17  1  0
 17 18  1  0
 18 19  1  0
 19 20  1  0
 20 21  2  0
 21 22  1  0
 22 23  2  0
 23 24  1  0
 24 25  2  0
  5 26  1  0
 26 27  2  0
 27  2  1  0
 16  6  1  0
 25 20  1  0
 14  9  1  0
M  END
>  <cnnaffinity>  (174) 
-6.36361

>  <filename>  (174) 
Fc1ccc(-n2nc(C3CC=CCC3)nc2COCc2cccnc2)cn1

>  <enamine_id>  (174) 
PV-004264765185

$$$$

     RDKit          3D

 24 27  0  0  0  0  0  0  0  0999 V2000
    4.8508    1.4223   18.9481 C   0  0  0  0  0  0  0  0  0  0  0  0
    5.5070    1.2257   17.7310 C   0  0  0  0  0  0  0  0  0  0  0  0
    6.6490    0.5248   17.6160 N   0  0  0  0  0  0  0  0  0  0  0  0
    7.1688    0.0010   18.7280 C   0  0  0  0  0  0  0  0  0  0  0  0
    6.6026    0.1727   20.0030 C   0  0  0  0  0  0  0  0  0  0  0  0
    7.2694   -0.3829   21.1261 N   0  0  0  0  0  0  0  0  0  0  0  0
    7.7962   -1.6355   21.0608 N   0  0  0  0  0  0  0  0  0  0  0  0
    8.3543   -1.7875   22.2459 C   0  0  0  0  0  0  0  0  0  0  0  0
    9.1382   -3.0044   22.5924 C   0  0  0  0  0  0  0  0  0  0  0  0
   10.5632   -2.7669   23.1855 C   0  0  0  0  0  0  0  0  0  0  0  0
   10.2141   -3.6930   24.3690 C   0  0  0  0  0  0  0  0  0  0  0  0
    8.7571   -3.8146   23.8715 C   0  0  0  0  0  0  0  0  0  0  0  0
    8.2556   -0.7032   23.0613 N   0  0  0  0  0  0  0  0  0  0  0  0
    7.6046    0.1777   22.3243 C   0  0  0  0  0  0  0  0  0  0  0  0
    7.5100    1.6360   22.6425 C   0  0  0  0  0  0  0  0  0  0  0  0
    8.7331    2.4629   22.1835 C   0  0  0  0  0  0  0  0  0  0  0  0
   10.0699    2.0243   22.8092 C   0  0  0  0  0  0  0  0  0  0  0  0
   11.1771    2.9716   22.4239 C   0  0  0  0  0  0  0  0  0  0  0  0
   11.6169    3.9725   23.2971 C   0  0  0  0  0  0  0  0  0  0  0  0
   12.5408    4.9162   22.8429 C   0  0  0  0  0  0  0  0  0  0  0  0
   13.0575    4.9221   21.6088 N   0  0  0  0  0  0  0  0  0  0  0  0
   12.6558    3.9441   20.7864 C   0  0  0  0  0  0  0  0  0  0  0  0
   11.7410    2.9502   21.1401 C   0  0  0  0  0  0  0  0  0  0  0  0
    5.4041    0.8900   20.1191 C   0  0  0  0  0  0  0  0  0  0  0  0
  1  2  2  0
  2  3  1  0
  3  4  2  0
  4  5  1  0
  5  6  1  0
  6  7  1  0
  7  8  2  0
  8  9  1  0
  9 10  1  0
 10 11  1  0
 11 12  1  0
  8 13  1  0
 13 14  2  0
 14 15  1  0
 15 16  1  0
 16 17  1  0
 17 18  1  0
 18 19  2  0
 19 20  1  0
 20 21  2  0
 21 22  1  0
 22 23  2  0
  5 24  2  0
 24  1  1  0
 14  6  1  0
 23 18  1  0
 12  9  1  0
M  END
>  <cnnaffinity>  (175) 
-6.36243

>  <filename>  (175) 
c1cncc(-n2nc(C3CCC3)nc2CCCc2ccncc2)c1

>  <enamine_id>  (175) 
PV-006824750690

$$$$

     RDKit          3D

 26 29  0  0  0  0  0  0  0  0999 V2000
    7.9366    2.4014   21.7068 O   0  0  0  0  0  0  0  0  0  0  0  0
    8.9968    2.3508   22.3118 C   0  0  0  0  0  0  0  0  0  0  0  0
    9.2488    3.2439   23.5259 C   0  0  0  0  0  0  0  0  0  0  0  0
    9.3809    2.4974   24.8756 C   0  0  0  0  0  0  0  0  0  0  0  0
   10.7592    1.8626   25.0842 C   0  0  0  0  0  0  0  0  0  0  0  0
   11.0996    0.7574   24.0820 C   0  0  0  0  0  0  0  0  0  0  0  0
   11.2412    1.2687   22.6387 C   0  0  0  0  0  0  0  0  0  0  0  0
    9.9811    1.4572   21.9161 N   0  0  0  0  0  0  0  0  0  0  0  0
    9.5943    0.4559   20.9021 C   0  0  0  0  0  0  0  0  0  0  0  0
    8.6128   -0.5747   21.3754 C   0  0  0  0  0  0  0  0  0  0  0  0
    8.8541   -1.4657   22.3179 N   0  0  0  0  0  0  0  0  0  0  0  0
    7.6357   -2.0461   22.5080 C   0  0  0  0  0  0  0  0  0  0  0  0
    7.4085   -3.0405   23.6052 C   0  0  1  0  0  0  0  0  0  0  0  0
    8.3169   -4.2871   23.4353 C   0  0  0  0  0  0  0  0  0  0  0  0
    8.2690   -5.1986   24.6381 C   0  0  0  0  0  0  0  0  0  0  0  0
    7.8406   -4.8057   25.8424 C   0  0  0  0  0  0  0  0  0  0  0  0
    7.2787   -3.4276   26.1143 C   0  0  0  0  0  0  0  0  0  0  0  0
    7.6296   -2.4138   25.0095 C   0  0  0  0  0  0  0  0  0  0  0  0
    6.6901   -1.6141   21.7051 N   0  0  0  0  0  0  0  0  0  0  0  0
    7.3289   -0.6904   20.9394 N   0  0  0  0  0  0  0  0  0  0  0  0
    6.6500   -0.0003   19.8983 C   0  0  0  0  0  0  0  0  0  0  0  0
    5.4350    0.6426   20.1598 C   0  0  0  0  0  0  0  0  0  0  0  0
    4.8076    1.3123   19.1042 C   0  0  0  0  0  0  0  0  0  0  0  0
    5.3950    1.2931   17.8366 C   0  0  0  0  0  0  0  0  0  0  0  0
    6.5493    0.6631   17.5733 N   0  0  0  0  0  0  0  0  0  0  0  0
    7.1604    0.0420   18.5894 C   0  0  0  0  0  0  0  0  0  0  0  0
  1  2  2  0
  2  3  1  0
  3  4  1  0
  4  5  1  0
  5  6  1  0
  6  7  1  0
  7  8  1  0
  8  9  1  0
  9 10  1  0
 10 11  2  0
 11 12  1  0
 13 12  1  6
 13 14  1  0
 14 15  1  0
 15 16  2  0
 16 17  1  0
 17 18  1  0
 12 19  2  0
 19 20  1  0
 20 21  1  0
 21 22  2  0
 22 23  1  0
 23 24  2  0
 24 25  1  0
 25 26  2  0
  8  2  1  0
 20 10  1  0
 26 21  1  0
 18 13  1  0
M  END
>  <cnnaffinity>  (176) 
-6.35636

>  <filename>  (176) 
O=C1CCCCCN1Cc1nc(C2CC=CCC2)nn1-c1cccnc1

>  <enamine_id>  (176) 
PV-006800680830

$$$$

     RDKit          3D

 25 28  0  0  0  0  0  0  0  0999 V2000
   12.0583   -1.1823   21.2012 O   0  0  0  0  0  0  0  0  0  0  0  0
   11.8380   -0.2004   21.8653 C   0  0  0  0  0  0  0  0  0  0  0  0
   12.6680    0.0975   22.8943 O   0  0  0  0  0  0  0  0  0  0  0  0
   12.3688    1.1136   23.8606 C   0  0  0  0  0  0  0  0  0  0  0  0
   11.6707    2.2920   23.2018 C   0  0  0  0  0  0  0  0  0  0  0  0
   10.4176    1.7697   22.5103 C   0  0  0  0  0  0  0  0  0  0  0  0
   10.7745    0.6733   21.6012 N   0  0  0  0  0  0  0  0  0  0  0  0
    9.6942    0.2171   20.7230 C   0  0  0  0  0  0  0  0  0  0  0  0
    8.6353   -0.6160   21.3762 C   0  0  0  0  0  0  0  0  0  0  0  0
    8.8316   -1.4594   22.3642 N   0  0  0  0  0  0  0  0  0  0  0  0
    7.5980   -1.9784   22.5801 C   0  0  0  0  0  0  0  0  0  0  0  0
    7.3739   -2.9219   23.7137 C   0  0  2  0  0  0  0  0  0  0  0  0
    7.5294   -2.1921   25.0802 C   0  0  0  0  0  0  0  0  0  0  0  0
    7.5224   -3.1562   26.2437 C   0  0  0  0  0  0  0  0  0  0  0  0
    7.7601   -4.4616   26.1156 C   0  0  0  0  0  0  0  0  0  0  0  0
    7.9888   -5.1368   24.7792 C   0  0  0  0  0  0  0  0  0  0  0  0
    8.3346   -4.1372   23.6607 C   0  0  0  0  0  0  0  0  0  0  0  0
    6.6651   -1.5361   21.7640 N   0  0  0  0  0  0  0  0  0  0  0  0
    7.3407   -0.6826   20.9483 N   0  0  0  0  0  0  0  0  0  0  0  0
    6.6584    0.0056   19.9035 C   0  0  0  0  0  0  0  0  0  0  0  0
    5.4400    0.6450   20.1624 C   0  0  0  0  0  0  0  0  0  0  0  0
    4.8122    1.3118   19.1080 C   0  0  0  0  0  0  0  0  0  0  0  0
    5.3995    1.2957   17.8380 C   0  0  0  0  0  0  0  0  0  0  0  0
    6.5574    0.6719   17.5804 N   0  0  0  0  0  0  0  0  0  0  0  0
    7.1683    0.0488   18.5934 C   0  0  0  0  0  0  0  0  0  0  0  0
  1  2  2  0
  2  3  1  0
  3  4  1  0
  4  5  1  0
  5  6  1  0
  6  7  1  0
  7  8  1  0
  8  9  1  0
  9 10  2  0
 10 11  1  0
 12 11  1  6
 12 13  1  0
 13 14  1  0
 14 15  2  0
 15 16  1  0
 16 17  1  0
 11 18  2  0
 18 19  1  0
 19 20  1  0
 20 21  2  0
 21 22  1  0
 22 23  2  0
 23 24  1  0
 24 25  2  0
  7  2  1  0
 19  9  1  0
 25 20  1  0
 17 12  1  0
M  END
>  <cnnaffinity>  (177) 
-6.35282

>  <filename>  (177) 
O=C1OCCCN1Cc1nc(C2CC=CCC2)nn1-c1cccnc1

>  <enamine_id>  (177) 
PV-007132657834

$$$$

     RDKit          3D

 23 26  0  0  0  0  0  0  0  0999 V2000
    7.6822    1.0771   25.1450 C   0  0  0  0  0  0  0  0  0  0  0  0
    6.9941    1.3198   24.0243 C   0  0  0  0  0  0  0  0  0  0  0  0
    7.6640    1.2548   22.6620 C   0  0  0  0  0  0  0  0  0  0  0  0
    7.7317   -0.1462   22.1303 C   0  0  0  0  0  0  0  0  0  0  0  0
    8.3278   -1.1238   22.7814 N   0  0  0  0  0  0  0  0  0  0  0  0
    8.2202   -2.1796   21.9468 C   0  0  0  0  0  0  0  0  0  0  0  0
    8.8175   -3.4903   22.3277 C   0  0  1  0  0  0  0  0  0  0  0  0
    8.7979   -3.8603   23.8363 C   0  0  0  0  0  0  0  0  0  0  0  0
    8.7119   -5.4033   23.8100 C   0  0  0  0  0  0  0  0  0  0  0  0
    8.7274   -5.7994   22.4448 O   0  0  0  0  0  0  0  0  0  0  0  0
    8.1777   -4.7373   21.6920 C   0  0  0  0  0  0  0  0  0  0  0  0
    7.6459   -1.9174   20.7870 N   0  0  0  0  0  0  0  0  0  0  0  0
    7.3060   -0.6070   20.9181 N   0  0  0  0  0  0  0  0  0  0  0  0
    6.6028    0.0459   19.8736 C   0  0  0  0  0  0  0  0  0  0  0  0
    5.3958    0.7088   20.1175 C   0  0  0  0  0  0  0  0  0  0  0  0
    4.7782    1.3530   19.0416 C   0  0  0  0  0  0  0  0  0  0  0  0
    5.3899    1.3170   17.7864 C   0  0  0  0  0  0  0  0  0  0  0  0
    6.5376    0.6552   17.5460 N   0  0  0  0  0  0  0  0  0  0  0  0
    7.1175    0.0213   18.5680 C   0  0  0  0  0  0  0  0  0  0  0  0
    5.4861    1.4620   24.0166 C   0  0  0  0  0  0  0  0  0  0  0  0
    4.8790    1.7318   25.4041 C   0  0  0  0  0  0  0  0  0  0  0  0
    5.5236    0.8228   26.4608 C   0  0  0  0  0  0  0  0  0  0  0  0
    7.0498    1.0296   26.5201 C   0  0  0  0  0  0  0  0  0  0  0  0
  1  2  2  0
  2  3  1  0
  3  4  1  0
  4  5  2  0
  5  6  1  0
  7  6  1  1
  7  8  1  0
  8  9  1  0
  9 10  1  0
 10 11  1  0
  6 12  2  0
 12 13  1  0
 13 14  1  0
 14 15  2  0
 15 16  1  0
 16 17  2  0
 17 18  1  0
 18 19  2  0
  2 20  1  0
 20 21  1  0
 21 22  1  0
 22 23  1  0
 23  1  1  0
 13  4  1  0
 19 14  1  0
 11  7  1  0
M  END
>  <cnnaffinity>  (178) 
-6.35057

>  <filename>  (178) 
C1=C(Cc2nc(C3CCOC3)nn2-c2cccnc2)CCCC1

>  <enamine_id>  (178) 
PV-007166616393

$$$$

     RDKit          3D

 28 31  0  0  0  0  0  0  0  0999 V2000
    5.3088   -6.7652   23.6584 C   0  0  0  0  0  0  0  0  0  0  0  0
    6.2330   -5.5981   23.2539 C   0  0  2  0  0  0  0  0  0  0  0  0
    7.4338   -5.3422   24.2011 C   0  0  0  0  0  0  0  0  0  0  0  0
    7.0498   -4.6849   25.5452 C   0  0  0  0  0  0  0  0  0  0  0  0
    6.1592   -3.4256   25.4046 C   0  0  1  0  0  0  0  0  0  0  0  0
    6.9180   -2.1882   24.9801 C   0  0  0  0  0  0  0  0  0  0  0  0
    6.5546   -0.9964   25.4123 N   0  0  0  0  0  0  0  0  0  0  0  0
    7.4119   -0.1539   24.7578 N   0  0  0  0  0  0  0  0  0  0  0  0
    7.3312    1.2688   24.8861 C   0  0  0  0  0  0  0  0  0  0  0  0
    6.1214    1.8907   24.7503 C   0  0  0  0  0  0  0  0  0  0  0  0
    6.0160    3.3226   24.8725 C   0  0  0  0  0  0  0  0  0  0  0  0
    5.0114    4.0174   24.7981 O   0  0  0  0  0  0  0  0  0  0  0  0
    7.2177    3.9834   25.1233 N   0  0  0  0  0  0  0  0  0  0  0  0
    8.4348    3.3861   25.2604 C   0  0  0  0  0  0  0  0  0  0  0  0
    8.5269    2.0314   25.1433 C   0  0  0  0  0  0  0  0  0  0  0  0
    8.2074   -0.8877   23.9370 C   0  0  0  0  0  0  0  0  0  0  0  0
    9.1041   -0.3257   22.8820 C   0  0  0  0  0  0  0  0  0  0  0  0
    8.3183    0.3273   21.7292 C   0  0  0  0  0  0  0  0  0  0  0  0
    7.4079   -0.6753   20.9992 C   0  0  0  0  0  0  0  0  0  0  0  0
    6.6398   -0.0140   19.8860 C   0  0  0  0  0  0  0  0  0  0  0  0
    5.4302    0.6471   20.1369 C   0  0  0  0  0  0  0  0  0  0  0  0
    4.7946    1.3145   19.0884 C   0  0  0  0  0  0  0  0  0  0  0  0
    5.3902    1.3033   17.8234 C   0  0  0  0  0  0  0  0  0  0  0  0
    6.5526    0.6884   17.5622 N   0  0  0  0  0  0  0  0  0  0  0  0
    7.1536    0.0579   18.5805 C   0  0  0  0  0  0  0  0  0  0  0  0
    7.9313   -2.1713   24.0759 N   0  0  0  0  0  0  0  0  0  0  0  0
    4.9625   -3.7047   24.4500 C   0  0  0  0  0  0  0  0  0  0  0  0
    5.4125   -4.2931   23.0991 C   0  0  0  0  0  0  0  0  0  0  0  0
  2  1  1  1
  2  3  1  0
  3  4  1  0
  4  5  1  0
  5  6  1  6
  6  7  2  0
  7  8  1  0
  8  9  1  0
  9 10  2  0
 10 11  1  0
 11 12  2  0
 11 13  1  0
 13 14  1  0
 14 15  2  0
  8 16  1  0
 16 17  1  0
 17 18  1  0
 18 19  1  0
 19 20  1  0
 20 21  2  0
 21 22  1  0
 22 23  2  0
 23 24  1  0
 24 25  2  0
 16 26  2  0
  5 27  1  0
 27 28  1  0
 28  2  1  0
 26  6  1  0
 15  9  1  0
 25 20  1  0
M  END
>  <cnnaffinity>  (179) 
-6.34995

>  <filename>  (179) 
CC1CCC(c2nc(CCCc3cccnc3)n(-c3cc[nH]c(=O)c3)n2)CC1

>  <enamine_id>  (179) 
PV-006978496745

$$$$

     RDKit          3D

 25 28  0  0  0  0  0  0  0  0999 V2000
    9.5999    4.5607   25.2877 F   0  0  0  0  0  0  0  0  0  0  0  0
    9.8093    3.6426   24.3314 C   0  0  0  0  0  0  0  0  0  0  0  0
    8.7392    3.1714   23.5874 C   0  0  0  0  0  0  0  0  0  0  0  0
    8.9768    2.2215   22.5838 C   0  0  0  0  0  0  0  0  0  0  0  0
   10.2563    1.6918   22.3599 C   0  0  0  0  0  0  0  0  0  0  0  0
   10.5775    0.7266   21.4501 O   0  0  0  0  0  0  0  0  0  0  0  0
    9.5963    0.1137   20.6267 C   0  0  0  0  0  0  0  0  0  0  0  0
    8.5386   -0.6728   21.3344 C   0  0  0  0  0  0  0  0  0  0  0  0
    8.7313   -1.4666   22.3670 N   0  0  0  0  0  0  0  0  0  0  0  0
    7.5075   -2.0165   22.5644 C   0  0  0  0  0  0  0  0  0  0  0  0
    7.2751   -2.9812   23.6780 C   0  0  0  0  0  0  0  0  0  0  0  0
    6.4470   -4.2687   23.3746 C   0  0  0  0  0  0  0  0  0  0  0  0
    5.3384   -3.7853   24.3377 C   0  0  0  0  0  0  0  0  0  0  0  0
    6.2182   -2.5868   24.7605 C   0  0  0  0  0  0  0  0  0  0  0  0
    6.5813   -1.6278   21.7069 N   0  0  0  0  0  0  0  0  0  0  0  0
    7.2555   -0.7883   20.8793 N   0  0  0  0  0  0  0  0  0  0  0  0
    6.5738   -0.1030   19.8316 C   0  0  0  0  0  0  0  0  0  0  0  0
    5.3835    0.5824   20.1028 C   0  0  0  0  0  0  0  0  0  0  0  0
    4.7945    1.3126   19.0675 C   0  0  0  0  0  0  0  0  0  0  0  0
    5.3983    1.3168   17.8036 C   0  0  0  0  0  0  0  0  0  0  0  0
    6.5123    0.6248   17.5231 N   0  0  0  0  0  0  0  0  0  0  0  0
    7.0750   -0.0745   18.5149 C   0  0  0  0  0  0  0  0  0  0  0  0
   11.3058    2.1899   23.1712 C   0  0  0  0  0  0  0  0  0  0  0  0
   12.5407    1.6790   23.0346 F   0  0  0  0  0  0  0  0  0  0  0  0
   11.1069    3.1822   24.1212 C   0  0  0  0  0  0  0  0  0  0  0  0
  1  2  1  0
  2  3  2  0
  3  4  1  0
  4  5  2  0
  5  6  1  0
  6  7  1  0
  7  8  1  0
  8  9  2  0
  9 10  1  0
 10 11  1  0
 11 12  1  0
 12 13  1  0
 13 14  1  0
 10 15  2  0
 15 16  1  0
 16 17  1  0
 17 18  2  0
 18 19  1  0
 19 20  2  0
 20 21  1  0
 21 22  2  0
  5 23  1  0
 23 24  1  0
 23 25  2  0
 25  2  1  0
 16  8  1  0
 22 17  1  0
 14 11  1  0
M  END
>  <cnnaffinity>  (180) 
-6.34107

>  <filename>  (180) 
Fc1ccc(OCc2nc(C3CCC3)nn2-c2cccnc2)c(F)c1

>  <enamine_id>  (180) 
PV-007071578895

$$$$

     RDKit          3D

 28 31  0  0  0  0  0  0  0  0999 V2000
    5.1322    6.8173   25.6846 C   0  0  0  0  0  0  0  0  0  0  0  0
    5.4373    5.4235   25.2409 C   0  0  0  0  0  0  0  0  0  0  0  0
    6.4426    4.7815   25.6966 N   0  0  0  0  0  0  0  0  0  0  0  0
    6.6846    3.4795   25.2269 C   0  0  0  0  0  0  0  0  0  0  0  0
    7.6595    2.8728   25.6274 O   0  0  0  0  0  0  0  0  0  0  0  0
    5.7235    2.8726   24.2602 C   0  0  0  0  0  0  0  0  0  0  0  0
    5.9812    1.4898   23.7371 C   0  0  0  0  0  0  0  0  0  0  0  0
    7.0215    1.5001   22.5970 C   0  0  0  0  0  0  0  0  0  0  0  0
    7.2754    0.1257   22.0876 C   0  0  0  0  0  0  0  0  0  0  0  0
    7.8404   -0.7926   22.8491 N   0  0  0  0  0  0  0  0  0  0  0  0
    8.0293   -1.8297   22.0019 C   0  0  0  0  0  0  0  0  0  0  0  0
    8.6693   -3.1118   22.4453 C   0  0  1  0  0  0  0  0  0  0  0  0
   10.0763   -2.8873   23.0950 C   0  0  0  0  0  0  0  0  0  0  0  0
   10.2140   -3.2631   24.5966 C   0  0  0  0  0  0  0  0  0  0  0  0
    9.3689   -4.4668   25.1215 C   0  0  2  0  0  0  0  0  0  0  0  0
   10.2435   -5.5222   25.8076 C   0  0  0  0  0  0  0  0  0  0  0  0
    8.4549   -5.0596   24.0382 C   0  0  0  0  0  0  0  0  0  0  0  0
    7.6976   -3.9332   23.3342 C   0  0  0  0  0  0  0  0  0  0  0  0
    7.6041   -1.6271   20.7709 N   0  0  0  0  0  0  0  0  0  0  0  0
    7.0842   -0.3690   20.8251 N   0  0  0  0  0  0  0  0  0  0  0  0
    6.4585    0.2058   19.6833 C   0  0  0  0  0  0  0  0  0  0  0  0
    5.3525    1.0584   19.7977 C   0  0  0  0  0  0  0  0  0  0  0  0
    4.8661    1.6695   18.6384 C   0  0  0  0  0  0  0  0  0  0  0  0
    5.4813    1.3849   17.4161 C   0  0  0  0  0  0  0  0  0  0  0  0
    6.5034    0.5194   17.2868 N   0  0  0  0  0  0  0  0  0  0  0  0
    6.9603   -0.0708   18.3950 C   0  0  0  0  0  0  0  0  0  0  0  0
    4.7041    3.6349   23.8273 C   0  0  0  0  0  0  0  0  0  0  0  0
    4.5602    4.9158   24.3209 N   0  0  0  0  0  0  0  0  0  0  0  0
  1  2  1  0
  2  3  2  0
  3  4  1  0
  4  5  2  0
  4  6  1  0
  6  7  1  0
  7  8  1  0
  8  9  1  0
  9 10  2  0
 10 11  1  0
 12 11  1  1
 12 13  1  0
 13 14  1  0
 14 15  1  0
 15 16  1  6
 15 17  1  0
 17 18  1  0
 11 19  2  0
 19 20  1  0
 20 21  1  0
 21 22  2  0
 22 23  1  0
 23 24  2  0
 24 25  1  0
 25 26  2  0
  6 27  2  0
 27 28  1  0
 28  2  1  0
 20  9  1  0
 26 21  1  0
 18 12  1  0
M  END
>  <cnnaffinity>  (181) 
-6.34048

>  <filename>  (181) 
Cc1nc(=O)c(CCc2nc(C3CCC(C)CC3)nn2-c2cccnc2)c[nH]1

>  <enamine_id>  (181) 
PV-007077677084

$$$$

     RDKit          3D

 24 26  0  0  0  0  0  0  0  0999 V2000
    8.5171   -5.6193   23.5664 C   0  0  0  0  0  0  0  0  0  0  0  0
    7.7217   -4.4040   23.1006 C   0  0  0  0  0  0  0  0  0  0  0  0
    6.4432   -4.8204   22.3637 C   0  0  0  0  0  0  0  0  0  0  0  0
    8.6244   -3.5638   22.1883 C   0  0  0  0  0  0  0  0  0  0  0  0
    8.0662   -2.2102   21.9558 C   0  0  0  0  0  0  0  0  0  0  0  0
    7.8516   -1.7569   20.7509 N   0  0  0  0  0  0  0  0  0  0  0  0
    7.3126   -0.5449   20.9856 N   0  0  0  0  0  0  0  0  0  0  0  0
    6.6819    0.1567   19.9470 C   0  0  0  0  0  0  0  0  0  0  0  0
    5.5546    0.9539   20.1655 C   0  0  0  0  0  0  0  0  0  0  0  0
    4.9278    1.5186   19.0497 C   0  0  0  0  0  0  0  0  0  0  0  0
    5.4424    1.2960   17.7661 C   0  0  0  0  0  0  0  0  0  0  0  0
    6.5263    0.5300   17.5512 N   0  0  0  0  0  0  0  0  0  0  0  0
    7.1219   -0.0341   18.6213 C   0  0  0  0  0  0  0  0  0  0  0  0
    7.3183   -0.3017   22.3608 C   0  0  0  0  0  0  0  0  0  0  0  0
    6.9530    0.9670   23.0768 C   0  0  0  0  0  0  0  0  0  0  0  0
    7.9001    1.2824   24.2596 C   0  0  0  0  0  0  0  0  0  0  0  0
    7.7170    2.7166   24.6860 C   0  0  0  0  0  0  0  0  0  0  0  0
    7.2287    3.0311   25.9537 C   0  0  0  0  0  0  0  0  0  0  0  0
    7.0260    4.3628   26.3150 C   0  0  0  0  0  0  0  0  0  0  0  0
    7.3153    5.3767   25.4886 N   0  0  0  0  0  0  0  0  0  0  0  0
    7.7870    5.0936   24.2637 C   0  0  0  0  0  0  0  0  0  0  0  0
    7.9882    3.7792   23.8215 C   0  0  0  0  0  0  0  0  0  0  0  0
    8.5741    3.4549   22.0368 Br  0  0  0  0  0  0  0  0  0  0  0  0
    7.7682   -1.3477   22.9890 N   0  0  0  0  0  0  0  0  0  0  0  0
  1  2  1  0
  2  3  1  0
  2  4  1  0
  4  5  1  0
  5  6  2  0
  6  7  1  0
  7  8  1  0
  8  9  2  0
  9 10  1  0
 10 11  2  0
 11 12  1  0
 12 13  2  0
  7 14  1  0
 14 15  1  0
 15 16  1  0
 16 17  1  0
 17 18  2  0
 18 19  1  0
 19 20  2  0
 20 21  1  0
 21 22  2  0
 22 23  1  0
 14 24  2  0
 24  5  1  0
 13  8  1  0
 22 17  1  0
M  END
>  <cnnaffinity>  (182) 
-6.33516

>  <filename>  (182) 
CC(C)Cc1nc(CCc2ccncc2Br)n(-c2cccnc2)n1

>  <enamine_id>  (182) 
PV-007081332120

$$$$

     RDKit          3D

 27 30  0  0  0  0  0  0  0  0999 V2000
    4.2527   -4.6712   24.8291 C   0  0  0  0  0  0  0  0  0  0  0  0
    5.7042   -4.7385   25.3238 C   0  0  1  0  0  0  0  0  0  0  0  0
    6.6593   -5.2850   24.2408 C   0  0  0  0  0  0  0  0  0  0  0  0
    6.9353   -4.2829   23.1136 C   0  0  0  0  0  0  0  0  0  0  0  0
    7.4447   -2.9343   23.6665 C   0  0  1  0  0  0  0  0  0  0  0  0
    7.6906   -1.9401   22.5697 C   0  0  0  0  0  0  0  0  0  0  0  0
    6.7578   -1.6001   21.6970 N   0  0  0  0  0  0  0  0  0  0  0  0
    7.3720   -0.6605   20.9387 N   0  0  0  0  0  0  0  0  0  0  0  0
    6.6620    0.0091   19.9027 C   0  0  0  0  0  0  0  0  0  0  0  0
    5.4412    0.6432   20.1666 C   0  0  0  0  0  0  0  0  0  0  0  0
    4.8113    1.3098   19.1110 C   0  0  0  0  0  0  0  0  0  0  0  0
    5.4009    1.2948   17.8401 C   0  0  0  0  0  0  0  0  0  0  0  0
    6.5627    0.6766   17.5806 N   0  0  0  0  0  0  0  0  0  0  0  0
    7.1734    0.0569   18.5948 C   0  0  0  0  0  0  0  0  0  0  0  0
    8.6321   -0.4635   21.4224 C   0  0  0  0  0  0  0  0  0  0  0  0
    9.5314    0.6203   20.9352 C   0  0  0  0  0  0  0  0  0  0  0  0
    9.0307    2.0270   21.3018 C   0  0  0  0  0  0  0  0  0  0  0  0
    8.9304    2.2465   22.8207 C   0  0  0  0  0  0  0  0  0  0  0  0
    8.4575    3.6355   23.1513 C   0  0  0  0  0  0  0  0  0  0  0  0
    7.0789    3.9535   23.1419 C   0  0  0  0  0  0  0  0  0  0  0  0
    6.6020    5.1884   23.3885 N   0  0  0  0  0  0  0  0  0  0  0  0
    7.5415    6.1218   23.6234 C   0  0  0  0  0  0  0  0  0  0  0  0
    8.9140    5.8240   23.6210 C   0  0  0  0  0  0  0  0  0  0  0  0
    9.3865    4.5841   23.3908 N   0  0  0  0  0  0  0  0  0  0  0  0
    8.8630   -1.2715   22.4387 N   0  0  0  0  0  0  0  0  0  0  0  0
    6.4798   -2.3613   24.7322 C   0  0  0  0  0  0  0  0  0  0  0  0
    6.2015   -3.3740   25.8482 C   0  0  0  0  0  0  0  0  0  0  0  0
  2  1  1  6
  2  3  1  0
  3  4  1  0
  4  5  1  0
  5  6  1  6
  6  7  2  0
  7  8  1  0
  8  9  1  0
  9 10  2  0
 10 11  1  0
 11 12  2  0
 12 13  1  0
 13 14  2  0
  8 15  1  0
 15 16  1  0
 16 17  1  0
 17 18  1  0
 18 19  1  0
 19 20  2  0
 20 21  1  0
 21 22  2  0
 22 23  1  0
 23 24  2  0
 15 25  2  0
  5 26  1  0
 26 27  1  0
 27  2  1  0
 25  6  1  0
 14  9  1  0
 24 19  1  0
M  END
>  <cnnaffinity>  (183) 
-6.33504

>  <filename>  (183) 
CC1CCC(c2nc(CCCc3cnccn3)n(-c3cccnc3)n2)CC1

>  <enamine_id>  (183) 
PV-006830193122

$$$$

     RDKit          3D

 24 26  0  0  0  0  0  0  0  0999 V2000
    8.1204   -5.2936   24.4445 C   0  0  0  0  0  0  0  0  0  0  0  0
    8.1980   -4.3175   23.2678 C   0  0  0  0  0  0  0  0  0  0  0  0
    7.5971   -4.9638   22.0158 C   0  0  0  0  0  0  0  0  0  0  0  0
    7.4743   -3.0043   23.6142 C   0  0  0  0  0  0  0  0  0  0  0  0
    7.6730   -1.9618   22.5495 C   0  0  0  0  0  0  0  0  0  0  0  0
    6.7294   -1.6404   21.6990 N   0  0  0  0  0  0  0  0  0  0  0  0
    7.3172   -0.6846   20.9422 N   0  0  0  0  0  0  0  0  0  0  0  0
    6.6671    0.0060   19.9130 C   0  0  0  0  0  0  0  0  0  0  0  0
    5.4473    0.6419   20.1629 C   0  0  0  0  0  0  0  0  0  0  0  0
    4.8195    1.3049   19.1047 C   0  0  0  0  0  0  0  0  0  0  0  0
    5.4031    1.2948   17.8290 C   0  0  0  0  0  0  0  0  0  0  0  0
    6.5740    0.6781   17.5808 N   0  0  0  0  0  0  0  0  0  0  0  0
    7.1903    0.0600   18.6065 C   0  0  0  0  0  0  0  0  0  0  0  0
    8.5985   -0.4466   21.4230 C   0  0  0  0  0  0  0  0  0  0  0  0
    9.5430    0.6206   20.9463 C   0  0  0  0  0  0  0  0  0  0  0  0
    9.0616    2.0034   21.4067 C   0  0  0  0  0  0  0  0  0  0  0  0
    8.9515    2.0661   22.9195 C   0  0  0  0  0  0  0  0  0  0  0  0
    7.7094    1.8464   23.5221 C   0  0  0  0  0  0  0  0  0  0  0  0
    7.6302    1.8891   24.9115 C   0  0  0  0  0  0  0  0  0  0  0  0
    8.7778    2.1486   25.6636 C   0  0  0  0  0  0  0  0  0  0  0  0
    9.9705    2.3700   25.0928 N   0  0  0  0  0  0  0  0  0  0  0  0
   10.0649    2.3277   23.7501 C   0  0  0  0  0  0  0  0  0  0  0  0
   11.7898    2.6360   22.9889 Br  0  0  0  0  0  0  0  0  0  0  0  0
    8.8568   -1.2518   22.4102 N   0  0  0  0  0  0  0  0  0  0  0  0
  1  2  1  0
  2  3  1  0
  2  4  1  0
  4  5  1  0
  5  6  2  0
  6  7  1  0
  7  8  1  0
  8  9  2  0
  9 10  1  0
 10 11  2  0
 11 12  1  0
 12 13  2  0
  7 14  1  0
 14 15  1  0
 15 16  1  0
 16 17  1  0
 17 18  2  0
 18 19  1  0
 19 20  2  0
 20 21  1  0
 21 22  2  0
 22 23  1  0
 14 24  2  0
 24  5  1  0
 13  8  1  0
 22 17  1  0
M  END
>  <cnnaffinity>  (184) 
-6.33403

>  <filename>  (184) 
CC(C)Cc1nc(CCc2cccnc2Br)n(-c2cccnc2)n1

>  <enamine_id>  (184) 
PV-007166299679

$$$$

     RDKit          3D

 24 27  0  0  0  0  0  0  0  0999 V2000
   13.1359    0.9572   22.6359 Cl  0  0  0  0  0  0  0  0  0  0  0  0
   11.6304    0.1579   22.9702 C   0  0  0  0  0  0  0  0  0  0  0  0
   11.5385   -1.2237   22.7685 C   0  0  0  0  0  0  0  0  0  0  0  0
   10.3948   -1.8733   23.2301 C   0  0  0  0  0  0  0  0  0  0  0  0
    9.3450   -1.1015   23.7462 C   0  0  0  0  0  0  0  0  0  0  0  0
    8.1125   -1.6822   24.1333 N   0  0  0  0  0  0  0  0  0  0  0  0
    7.4415   -1.2565   25.2370 N   0  0  0  0  0  0  0  0  0  0  0  0
    6.3801   -2.0401   25.2433 C   0  0  0  0  0  0  0  0  0  0  0  0
    5.3400   -1.9755   26.2950 C   0  0  0  0  0  0  0  0  0  0  0  0
    4.7362   -0.6651   26.7138 C   0  0  0  0  0  0  0  0  0  0  0  0
    3.8972   -1.6743   25.9878 C   0  0  0  0  0  0  0  0  0  0  0  0
    6.2997   -2.9210   24.2117 N   0  0  0  0  0  0  0  0  0  0  0  0
    7.3717   -2.6356   23.5008 C   0  0  0  0  0  0  0  0  0  0  0  0
    7.5876   -3.0883   22.0915 C   0  0  0  0  0  0  0  0  0  0  0  0
    6.8470   -2.1946   21.0694 C   0  0  0  0  0  0  0  0  0  0  0  0
    7.3621   -0.7478   20.9866 C   0  0  0  0  0  0  0  0  0  0  0  0
    6.6740    0.0433   19.8878 C   0  0  0  0  0  0  0  0  0  0  0  0
    5.4517    0.6969   20.1186 C   0  0  0  0  0  0  0  0  0  0  0  0
    4.8032    1.3376   19.0598 C   0  0  0  0  0  0  0  0  0  0  0  0
    5.4000    1.3157   17.7971 C   0  0  0  0  0  0  0  0  0  0  0  0
    6.5620    0.6982   17.5414 N   0  0  0  0  0  0  0  0  0  0  0  0
    7.1727    0.0905   18.5711 C   0  0  0  0  0  0  0  0  0  0  0  0
    9.5312    0.2836   23.8523 C   0  0  0  0  0  0  0  0  0  0  0  0
   10.6574    0.9007   23.4748 N   0  0  0  0  0  0  0  0  0  0  0  0
  1  2  1  0
  2  3  2  0
  3  4  1  0
  4  5  2  0
  5  6  1  0
  6  7  1  0
  7  8  2  0
  8  9  1  0
  9 10  1  0
 10 11  1  0
  8 12  1  0
 12 13  2  0
 13 14  1  0
 14 15  1  0
 15 16  1  0
 16 17  1  0
 17 18  2  0
 18 19  1  0
 19 20  2  0
 20 21  1  0
 21 22  2  0
  5 23  1  0
 23 24  2  0
 24  2  1  0
 13  6  1  0
 22 17  1  0
 11  9  1  0
M  END
>  <cnnaffinity>  (185) 
-6.33376

>  <filename>  (185) 
Clc1ccc(-n2nc(C3CC3)nc2CCCc2cccnc2)cn1

>  <enamine_id>  (185) 
PV-005006006105

$$$$

     RDKit          3D

 25 28  0  0  0  0  0  0  0  0999 V2000
   11.9820    2.6154   24.5508 C   0  0  0  0  0  0  0  0  0  0  0  0
   11.0310    2.2870   23.4630 C   0  0  0  0  0  0  0  0  0  0  0  0
    9.8642    2.9015   23.3436 N   0  0  0  0  0  0  0  0  0  0  0  0
    9.2486    2.3018   22.3020 N   0  0  0  0  0  0  0  0  0  0  0  0
    7.8695    2.6737   22.0241 C   0  0  0  0  0  0  0  0  0  0  0  0
   10.0089    1.3025   21.7708 C   0  0  0  0  0  0  0  0  0  0  0  0
    9.5730    0.2765   20.7640 C   0  0  0  0  0  0  0  0  0  0  0  0
    8.5382   -0.6662   21.2894 C   0  0  0  0  0  0  0  0  0  0  0  0
    8.7563   -1.5124   22.2779 N   0  0  0  0  0  0  0  0  0  0  0  0
    7.5399   -2.0805   22.4735 C   0  0  0  0  0  0  0  0  0  0  0  0
    7.3257   -3.0684   23.5752 C   0  0  1  0  0  0  0  0  0  0  0  0
    6.5519   -2.4334   24.7631 C   0  0  0  0  0  0  0  0  0  0  0  0
    6.0546   -3.4604   25.7472 C   0  0  0  0  0  0  0  0  0  0  0  0
    6.0501   -4.7740   25.5141 C   0  0  0  0  0  0  0  0  0  0  0  0
    6.5238   -5.3962   24.2212 C   0  0  0  0  0  0  0  0  0  0  0  0
    6.6576   -4.3712   23.0828 C   0  0  0  0  0  0  0  0  0  0  0  0
    6.5896   -1.6574   21.6549 N   0  0  0  0  0  0  0  0  0  0  0  0
    7.2523   -0.7790   20.8578 N   0  0  0  0  0  0  0  0  0  0  0  0
    6.5672   -0.0788   19.8317 C   0  0  0  0  0  0  0  0  0  0  0  0
    5.3834    0.6063   20.1146 C   0  0  0  0  0  0  0  0  0  0  0  0
    4.7857    1.3235   19.0723 C   0  0  0  0  0  0  0  0  0  0  0  0
    5.3754    1.3227   17.8025 C   0  0  0  0  0  0  0  0  0  0  0  0
    6.4963    0.6404   17.5203 N   0  0  0  0  0  0  0  0  0  0  0  0
    7.0670   -0.0427   18.5190 C   0  0  0  0  0  0  0  0  0  0  0  0
   11.1743    1.2762   22.5019 C   0  0  0  0  0  0  0  0  0  0  0  0
  1  2  1  0
  2  3  2  0
  3  4  1  0
  4  5  1  0
  4  6  1  0
  6  7  1  0
  7  8  1  0
  8  9  2  0
  9 10  1  0
 11 10  1  6
 11 12  1  0
 12 13  1  0
 13 14  2  0
 14 15  1  0
 15 16  1  0
 10 17  2  0
 17 18  1  0
 18 19  1  0
 19 20  2  0
 20 21  1  0
 21 22  2  0
 22 23  1  0
 23 24  2  0
  6 25  2  0
 25  2  1  0
 18  8  1  0
 24 19  1  0
 16 11  1  0
M  END
>  <cnnaffinity>  (186) 
-6.33304

>  <filename>  (186) 
Cc1cc(Cc2nc(C3CC=CCC3)nn2-c2cccnc2)n(C)n1

>  <enamine_id>  (186) 
PV-006808232630

$$$$

     RDKit          3D

 26 29  0  0  0  0  0  0  0  0999 V2000
    7.7480   -4.5016   26.0675 C   0  0  0  0  0  0  0  0  0  0  0  0
    7.5268   -3.1916   26.1917 C   0  0  0  0  0  0  0  0  0  0  0  0
    7.4433   -2.2403   25.0174 C   0  0  0  0  0  0  0  0  0  0  0  0
    7.2519   -2.9849   23.6638 C   0  0  1  0  0  0  0  0  0  0  0  0
    7.3874   -2.0747   22.4755 C   0  0  0  0  0  0  0  0  0  0  0  0
    6.3773   -1.7492   21.6902 N   0  0  0  0  0  0  0  0  0  0  0  0
    6.9553   -0.9581   20.7575 N   0  0  0  0  0  0  0  0  0  0  0  0
    6.2225   -0.3254   19.7212 C   0  0  0  0  0  0  0  0  0  0  0  0
    5.1158    0.4764   20.0119 C   0  0  0  0  0  0  0  0  0  0  0  0
    4.6325    1.3064   18.9947 C   0  0  0  0  0  0  0  0  0  0  0  0
    5.2526    1.2854   17.7370 C   0  0  0  0  0  0  0  0  0  0  0  0
    6.2531    0.4452   17.4319 N   0  0  0  0  0  0  0  0  0  0  0  0
    6.6947   -0.3661   18.3966 C   0  0  0  0  0  0  0  0  0  0  0  0
    8.2731   -0.7923   21.0633 C   0  0  0  0  0  0  0  0  0  0  0  0
    9.1410    0.0854   20.1986 C   0  0  0  0  0  0  0  0  0  0  0  0
   10.2995    0.4737   20.8622 O   0  0  0  0  0  0  0  0  0  0  0  0
   10.6156    1.8464   20.9916 C   0  0  0  0  0  0  0  0  0  0  0  0
   11.6998    1.9909   22.0332 C   0  0  0  0  0  0  0  0  0  0  0  0
   12.3091    0.8662   22.6073 C   0  0  0  0  0  0  0  0  0  0  0  0
   13.3305    1.0428   23.5333 C   0  0  0  0  0  0  0  0  0  0  0  0
   13.7601    2.2493   23.8889 N   0  0  0  0  0  0  0  0  0  0  0  0
   13.2307    3.3273   23.3048 C   0  0  0  0  0  0  0  0  0  0  0  0
   12.1874    3.2584   22.3872 C   0  0  0  0  0  0  0  0  0  0  0  0
    8.5790   -1.5184   22.1232 N   0  0  0  0  0  0  0  0  0  0  0  0
    8.2197   -4.1923   23.5855 C   0  0  0  0  0  0  0  0  0  0  0  0
    7.9541   -5.1864   24.7340 C   0  0  0  0  0  0  0  0  0  0  0  0
  1  2  2  0
  2  3  1  0
  3  4  1  0
  4  5  1  6
  5  6  2  0
  6  7  1  0
  7  8  1  0
  8  9  2  0
  9 10  1  0
 10 11  2  0
 11 12  1  0
 12 13  2  0
  7 14  1  0
 14 15  1  0
 15 16  1  0
 16 17  1  0
 17 18  1  0
 18 19  2  0
 19 20  1  0
 20 21  2  0
 21 22  1  0
 22 23  2  0
 14 24  2  0
  4 25  1  0
 25 26  1  0
 26  1  1  0
 24  5  1  0
 13  8  1  0
 23 18  1  0
M  END
>  <cnnaffinity>  (187) 
-6.33072

>  <filename>  (187) 
C1=CCC(c2nc(COCc3ccncc3)n(-c3cccnc3)n2)CC1

>  <enamine_id>  (187) 
PV-006872115744

$$$$

     RDKit          3D

 24 27  0  0  0  0  0  0  0  0999 V2000
   11.8789    2.6972   24.0297 C   0  0  0  0  0  0  0  0  0  0  0  0
   11.5645    1.7007   22.9770 C   0  0  0  0  0  0  0  0  0  0  0  0
   10.5189    1.6237   22.2245 N   0  0  0  0  0  0  0  0  0  0  0  0
   10.7049    0.4728   21.4689 C   0  0  0  0  0  0  0  0  0  0  0  0
    9.6082    0.0417   20.5579 C   0  0  0  0  0  0  0  0  0  0  0  0
    8.5339   -0.7164   21.2642 C   0  0  0  0  0  0  0  0  0  0  0  0
    8.7343   -1.5104   22.2966 N   0  0  0  0  0  0  0  0  0  0  0  0
    7.5051   -2.0283   22.5379 C   0  0  0  0  0  0  0  0  0  0  0  0
    7.2740   -3.0315   23.6319 C   0  0  2  0  0  0  0  0  0  0  0  0
    6.9221   -4.4295   23.0459 C   0  0  0  0  0  0  0  0  0  0  0  0
    6.3808   -5.3857   24.0810 C   0  0  0  0  0  0  0  0  0  0  0  0
    6.0916   -5.0380   25.3364 C   0  0  0  0  0  0  0  0  0  0  0  0
    6.1214   -3.6083   25.8321 C   0  0  0  0  0  0  0  0  0  0  0  0
    6.2266   -2.5855   24.6826 C   0  0  0  0  0  0  0  0  0  0  0  0
    6.5601   -1.6236   21.7056 N   0  0  0  0  0  0  0  0  0  0  0  0
    7.2246   -0.7870   20.8664 N   0  0  0  0  0  0  0  0  0  0  0  0
    6.5333   -0.0992   19.8276 C   0  0  0  0  0  0  0  0  0  0  0  0
    5.3410    0.5882   20.0860 C   0  0  0  0  0  0  0  0  0  0  0  0
    4.7633    1.3255   19.0469 C   0  0  0  0  0  0  0  0  0  0  0  0
    5.3810    1.3366   17.7901 C   0  0  0  0  0  0  0  0  0  0  0  0
    6.5022    0.6498   17.5238 N   0  0  0  0  0  0  0  0  0  0  0  0
    7.0534   -0.0499   18.5214 C   0  0  0  0  0  0  0  0  0  0  0  0
   11.8838   -0.0836   21.8131 C   0  0  0  0  0  0  0  0  0  0  0  0
   12.4566    0.6983   22.7814 O   0  0  0  0  0  0  0  0  0  0  0  0
  1  2  1  0
  2  3  2  0
  3  4  1  0
  4  5  1  0
  5  6  1  0
  6  7  2  0
  7  8  1  0
  9  8  1  6
  9 10  1  0
 10 11  1  0
 11 12  2  0
 12 13  1  0
 13 14  1  0
  8 15  2  0
 15 16  1  0
 16 17  1  0
 17 18  2  0
 18 19  1  0
 19 20  2  0
 20 21  1  0
 21 22  2  0
  4 23  2  0
 23 24  1  0
 24  2  1  0
 16  6  1  0
 22 17  1  0
 14  9  1  0
M  END
>  <cnnaffinity>  (188) 
-6.32699

>  <filename>  (188) 
Cc1nc(Cc2nc(C3CC=CCC3)nn2-c2cccnc2)co1

>  <enamine_id>  (188) 
PV-006996435335

$$$$

     RDKit          3D

 24 27  0  0  0  0  0  0  0  0999 V2000
   12.2806   -1.5751   21.5269 C   0  0  0  0  0  0  0  0  0  0  0  0
   11.7832   -0.2149   21.8721 C   0  0  0  0  0  0  0  0  0  0  0  0
   12.4145    0.5160   22.7822 N   0  0  0  0  0  0  0  0  0  0  0  0
   11.7106    1.6532   22.8776 N   0  0  0  0  0  0  0  0  0  0  0  0
   12.0067    2.5635   23.9625 C   0  0  0  0  0  0  0  0  0  0  0  0
   10.6362    1.6544   22.0542 C   0  0  0  0  0  0  0  0  0  0  0  0
   10.6270    0.4580   21.3818 C   0  0  0  0  0  0  0  0  0  0  0  0
    9.5088   -0.0373   20.4963 C   0  0  0  0  0  0  0  0  0  0  0  0
    8.4547   -0.8656   21.1824 C   0  0  0  0  0  0  0  0  0  0  0  0
    8.6538   -1.6945   22.1898 N   0  0  0  0  0  0  0  0  0  0  0  0
    7.4163   -2.1763   22.4622 C   0  0  0  0  0  0  0  0  0  0  0  0
    7.1945   -3.1280   23.6040 C   0  0  0  0  0  0  0  0  0  0  0  0
    6.5333   -4.4564   23.1823 C   0  0  0  0  0  0  0  0  0  0  0  0
    6.0090   -5.0757   24.4906 C   0  0  0  0  0  0  0  0  0  0  0  0
    5.7836   -3.8953   25.4722 C   0  0  0  0  0  0  0  0  0  0  0  0
    6.2892   -2.6198   24.7569 C   0  0  0  0  0  0  0  0  0  0  0  0
    6.4667   -1.7349   21.6531 N   0  0  0  0  0  0  0  0  0  0  0  0
    7.1351   -0.9075   20.8088 N   0  0  0  0  0  0  0  0  0  0  0  0
    6.4357   -0.2110   19.7778 C   0  0  0  0  0  0  0  0  0  0  0  0
    5.2763    0.5222   20.0603 C   0  0  0  0  0  0  0  0  0  0  0  0
    4.7387    1.3167   19.0405 C   0  0  0  0  0  0  0  0  0  0  0  0
    5.3347    1.3145   17.7743 C   0  0  0  0  0  0  0  0  0  0  0  0
    6.3859    0.5407   17.4711 N   0  0  0  0  0  0  0  0  0  0  0  0
    6.9060   -0.2091   18.4501 C   0  0  0  0  0  0  0  0  0  0  0  0
  1  2  1  0
  2  3  2  0
  3  4  1  0
  4  5  1  0
  4  6  1  0
  6  7  2  0
  7  8  1  0
  8  9  1  0
  9 10  2  0
 10 11  1  0
 11 12  1  0
 12 13  1  0
 13 14  1  0
 14 15  1  0
 15 16  1  0
 11 17  2  0
 17 18  1  0
 18 19  1  0
 19 20  2  0
 20 21  1  0
 21 22  2  0
 22 23  1  0
 23 24  2  0
  7  2  1  0
 18  9  1  0
 24 19  1  0
 16 12  1  0
M  END
>  <cnnaffinity>  (189) 
-6.32651

>  <filename>  (189) 
Cc1nn(C)cc1Cc1nc(C2CCCC2)nn1-c1cccnc1

>  <enamine_id>  (189) 
PV-007174754791

$$$$

     RDKit          3D

 27 30  0  0  0  0  0  0  0  0999 V2000
    7.4574   -5.2382   27.3794 C   0  0  0  0  0  0  0  0  0  0  0  0
    7.2803   -4.4264   26.0945 C   0  0  2  0  0  0  0  0  0  0  0  0
    8.1760   -4.9728   24.9518 C   0  0  0  0  0  0  0  0  0  0  0  0
    8.5076   -3.9374   23.8512 C   0  0  0  0  0  0  0  0  0  0  0  0
    7.4081   -2.8605   23.7361 C   0  0  2  0  0  0  0  0  0  0  0  0
    7.6527   -1.9328   22.5863 C   0  0  0  0  0  0  0  0  0  0  0  0
    6.7188   -1.5771   21.7295 N   0  0  0  0  0  0  0  0  0  0  0  0
    7.3534   -0.6605   20.9467 N   0  0  0  0  0  0  0  0  0  0  0  0
    6.6572    0.0083   19.9031 C   0  0  0  0  0  0  0  0  0  0  0  0
    5.4401    0.6463   20.1636 C   0  0  0  0  0  0  0  0  0  0  0  0
    4.8137    1.3131   19.1076 C   0  0  0  0  0  0  0  0  0  0  0  0
    5.3995    1.2971   17.8373 C   0  0  0  0  0  0  0  0  0  0  0  0
    6.5572    0.6706   17.5774 N   0  0  0  0  0  0  0  0  0  0  0  0
    7.1670    0.0493   18.5935 C   0  0  0  0  0  0  0  0  0  0  0  0
    8.6277   -0.5000   21.4052 C   0  0  0  0  0  0  0  0  0  0  0  0
    9.5198    0.6077   20.9454 C   0  0  0  0  0  0  0  0  0  0  0  0
    9.0407    2.0063   21.4415 C   0  0  0  0  0  0  0  0  0  0  0  0
    8.9447    2.0659   22.9337 C   0  0  0  0  0  0  0  0  0  0  0  0
   10.0418    2.1968   23.7466 C   0  0  0  0  0  0  0  0  0  0  0  0
    9.8875    2.0962   25.1542 C   0  0  0  0  0  0  0  0  0  0  0  0
    8.6609    1.9133   25.7256 C   0  0  0  0  0  0  0  0  0  0  0  0
    7.4846    1.7326   24.8912 C   0  0  0  0  0  0  0  0  0  0  0  0
    6.3475    1.4944   25.2709 O   0  0  0  0  0  0  0  0  0  0  0  0
    7.7236    1.8305   23.5251 N   0  0  0  0  0  0  0  0  0  0  0  0
    8.8553   -1.3175   22.4109 N   0  0  0  0  0  0  0  0  0  0  0  0
    7.2593   -2.0658   25.0739 C   0  0  0  0  0  0  0  0  0  0  0  0
    7.5440   -2.9284   26.3259 C   0  0  0  0  0  0  0  0  0  0  0  0
  2  1  1  1
  2  3  1  0
  3  4  1  0
  4  5  1  0
  5  6  1  6
  6  7  2  0
  7  8  1  0
  8  9  1  0
  9 10  2  0
 10 11  1  0
 11 12  2  0
 12 13  1  0
 13 14  2  0
  8 15  1  0
 15 16  1  0
 16 17  1  0
 17 18  1  0
 18 19  2  0
 19 20  1  0
 20 21  2  0
 21 22  1  0
 22 23  2  0
 22 24  1  0
 15 25  2  0
  5 26  1  0
 26 27  1  0
 27  2  1  0
 25  6  1  0
 14  9  1  0
 24 18  1  0
M  END
>  <cnnaffinity>  (190) 
-6.32431

>  <filename>  (190) 
CC1CCC(c2nc(CCc3cccc(=O)[nH]3)n(-c3cccnc3)n2)CC1

>  <enamine_id>  (190) 
PV-006766503225

$$$$

     RDKit          3D

 25 28  0  0  0  0  0  0  0  0999 V2000
   10.8754    2.4254   21.8082 C   0  0  0  0  0  0  0  0  0  0  0  0
    9.7487    1.4560   22.1853 C   0  0  2  0  0  0  0  0  0  0  0  0
    9.6101    0.3698   21.0772 C   0  0  0  0  0  0  0  0  0  0  0  0
    8.5898   -0.6637   21.3977 C   0  0  0  0  0  0  0  0  0  0  0  0
    8.7774   -1.5292   22.3710 N   0  0  0  0  0  0  0  0  0  0  0  0
    7.5535   -2.0972   22.5255 C   0  0  0  0  0  0  0  0  0  0  0  0
    7.3214   -3.0608   23.6462 C   0  0  1  0  0  0  0  0  0  0  0  0
    8.3338   -4.2325   23.5749 C   0  0  0  0  0  0  0  0  0  0  0  0
    8.3195   -5.0864   24.8172 C   0  0  0  0  0  0  0  0  0  0  0  0
    7.7419   -4.7050   25.9595 C   0  0  0  0  0  0  0  0  0  0  0  0
    7.1062   -3.3465   26.1582 C   0  0  0  0  0  0  0  0  0  0  0  0
    7.4362   -2.3614   25.0244 C   0  0  0  0  0  0  0  0  0  0  0  0
    6.6360   -1.6776   21.6798 N   0  0  0  0  0  0  0  0  0  0  0  0
    7.3142   -0.7747   20.9155 N   0  0  0  0  0  0  0  0  0  0  0  0
    6.6365   -0.0886   19.8625 C   0  0  0  0  0  0  0  0  0  0  0  0
    5.3865    0.4969   20.0966 C   0  0  0  0  0  0  0  0  0  0  0  0
    4.7940    1.2331   19.0660 C   0  0  0  0  0  0  0  0  0  0  0  0
    5.4523    1.3153   17.8342 C   0  0  0  0  0  0  0  0  0  0  0  0
    6.6115    0.6921   17.5785 N   0  0  0  0  0  0  0  0  0  0  0  0
    7.1844   -0.0003   18.5718 C   0  0  0  0  0  0  0  0  0  0  0  0
    8.4658    2.1557   22.3878 N   0  0  0  0  0  0  0  0  0  0  0  0
    7.5845    2.0314   23.4151 C   0  0  0  0  0  0  0  0  0  0  0  0
    6.4732    2.7876   23.0916 C   0  0  0  0  0  0  0  0  0  0  0  0
    6.7853    3.3268   21.8165 C   0  0  0  0  0  0  0  0  0  0  0  0
    7.9871    2.9251   21.4110 N   0  0  0  0  0  0  0  0  0  0  0  0
  2  1  1  6
  2  3  1  0
  3  4  1  0
  4  5  2  0
  5  6  1  0
  7  6  1  6
  7  8  1  0
  8  9  1  0
  9 10  2  0
 10 11  1  0
 11 12  1  0
  6 13  2  0
 13 14  1  0
 14 15  1  0
 15 16  2  0
 16 17  1  0
 17 18  2  0
 18 19  1  0
 19 20  2  0
  2 21  1  0
 21 22  1  0
 22 23  2  0
 23 24  1  0
 24 25  2  0
 14  4  1  0
 20 15  1  0
 25 21  1  0
 12  7  1  0
M  END
>  <cnnaffinity>  (191) 
-6.31989

>  <filename>  (191) 
CC(Cc1nc(C2CC=CCC2)nn1-c1cccnc1)n1cccn1

>  <enamine_id>  (191) 
PV-006895392564

$$$$

     RDKit          3D

 28 31  0  0  0  0  0  0  0  0999 V2000
    7.2040    6.0315   26.1789 F   0  0  0  0  0  0  0  0  0  0  0  0
    7.6294    5.0612   25.3561 C   0  0  0  0  0  0  0  0  0  0  0  0
    7.6879    5.2669   23.9890 C   0  0  0  0  0  0  0  0  0  0  0  0
    8.1348    4.2441   23.1354 C   0  0  0  0  0  0  0  0  0  0  0  0
    8.5248    3.0068   23.6625 C   0  0  0  0  0  0  0  0  0  0  0  0
    8.9787    1.9535   22.9345 O   0  0  0  0  0  0  0  0  0  0  0  0
    9.0386    2.0148   21.5126 C   0  0  0  0  0  0  0  0  0  0  0  0
    9.5096    0.6507   21.0085 C   0  0  0  0  0  0  0  0  0  0  0  0
    8.6249   -0.4534   21.4461 C   0  0  0  0  0  0  0  0  0  0  0  0
    8.8672   -1.2936   22.4303 N   0  0  0  0  0  0  0  0  0  0  0  0
    7.6897   -1.9525   22.5602 C   0  0  0  0  0  0  0  0  0  0  0  0
    7.4342   -2.9313   23.6743 C   0  0  0  0  0  0  0  0  0  0  0  0
    6.8464   -4.2638   23.1561 C   0  0  0  0  0  0  0  0  0  0  0  0
    6.4561   -5.1727   24.3205 C   0  0  0  0  0  0  0  0  0  0  0  0
    5.5648   -4.5284   25.2142 O   0  0  0  0  0  0  0  0  0  0  0  0
    6.1412   -3.3790   25.8118 C   0  0  0  0  0  0  0  0  0  0  0  0
    6.5127   -2.3267   24.7690 C   0  0  0  0  0  0  0  0  0  0  0  0
    6.7565   -1.6050   21.6918 N   0  0  0  0  0  0  0  0  0  0  0  0
    7.3711   -0.6517   20.9470 N   0  0  0  0  0  0  0  0  0  0  0  0
    6.6610    0.0118   19.9042 C   0  0  0  0  0  0  0  0  0  0  0  0
    5.4390    0.6405   20.1682 C   0  0  0  0  0  0  0  0  0  0  0  0
    4.8132    1.3083   19.1099 C   0  0  0  0  0  0  0  0  0  0  0  0
    5.4006    1.2966   17.8377 C   0  0  0  0  0  0  0  0  0  0  0  0
    6.5583    0.6716   17.5752 N   0  0  0  0  0  0  0  0  0  0  0  0
    7.1675    0.0519   18.5925 C   0  0  0  0  0  0  0  0  0  0  0  0
    8.4665    2.7965   25.0540 C   0  0  0  0  0  0  0  0  0  0  0  0
    8.0211    3.8201   25.8759 C   0  0  0  0  0  0  0  0  0  0  0  0
    7.9582    3.6251   27.1967 F   0  0  0  0  0  0  0  0  0  0  0  0
  1  2  1  0
  2  3  2  0
  3  4  1  0
  4  5  2  0
  5  6  1  0
  6  7  1  0
  7  8  1  0
  8  9  1  0
  9 10  2  0
 10 11  1  0
 11 12  1  0
 12 13  1  0
 13 14  1  0
 14 15  1  0
 15 16  1  0
 16 17  1  0
 11 18  2  0
 18 19  1  0
 19 20  1  0
 20 21  2  0
 21 22  1  0
 22 23  2  0
 23 24  1  0
 24 25  2  0
  5 26  1  0
 26 27  2  0
 27 28  1  0
 27  2  1  0
 19  9  1  0
 25 20  1  0
 17 12  1  0
M  END
>  <cnnaffinity>  (192) 
-6.31962

>  <filename>  (192) 
Fc1ccc(OCCc2nc(C3CCOCC3)nn2-c2cccnc2)cc1F

>  <enamine_id>  (192) 
PV-006752715689

$$$$

     RDKit          3D

 26 29  0  0  0  0  0  0  0  0999 V2000
    9.3587    2.0026   20.9694 C   0  0  0  0  0  0  0  0  0  0  0  0
    9.0328    1.9468   22.4580 C   0  0  2  0  0  0  0  0  0  0  0  0
    7.6732    1.2280   22.6783 C   0  0  0  0  0  0  0  0  0  0  0  0
    7.6846   -0.1760   22.1768 C   0  0  0  0  0  0  0  0  0  0  0  0
    8.2677   -1.1524   22.8382 N   0  0  0  0  0  0  0  0  0  0  0  0
    8.2265   -2.1898   21.9722 C   0  0  0  0  0  0  0  0  0  0  0  0
    8.8605   -3.4860   22.3441 C   0  0  1  0  0  0  0  0  0  0  0  0
    8.8824   -3.8355   23.8530 C   0  0  0  0  0  0  0  0  0  0  0  0
    8.7946   -5.3743   23.8588 C   0  0  0  0  0  0  0  0  0  0  0  0
    8.7310   -5.8013   22.5064 O   0  0  0  0  0  0  0  0  0  0  0  0
    8.1972   -4.7368   21.7436 C   0  0  0  0  0  0  0  0  0  0  0  0
    7.6893   -1.9191   20.7964 N   0  0  0  0  0  0  0  0  0  0  0  0
    7.3012   -0.6219   20.9430 N   0  0  0  0  0  0  0  0  0  0  0  0
    6.6137    0.0434   19.8954 C   0  0  0  0  0  0  0  0  0  0  0  0
    5.4014    0.7011   20.1283 C   0  0  0  0  0  0  0  0  0  0  0  0
    4.7886    1.3459   19.0484 C   0  0  0  0  0  0  0  0  0  0  0  0
    5.4079    1.3134   17.7947 C   0  0  0  0  0  0  0  0  0  0  0  0
    6.5611    0.6642   17.5635 N   0  0  0  0  0  0  0  0  0  0  0  0
    7.1418    0.0340   18.5921 C   0  0  0  0  0  0  0  0  0  0  0  0
    9.0425    3.3376   23.0731 C   0  0  0  0  0  0  0  0  0  0  0  0
    8.1312    4.3190   22.6493 C   0  0  0  0  0  0  0  0  0  0  0  0
    8.1243    5.5882   23.2324 C   0  0  0  0  0  0  0  0  0  0  0  0
    9.0535    5.9160   24.2246 C   0  0  0  0  0  0  0  0  0  0  0  0
    9.9885    4.9555   24.5992 C   0  0  0  0  0  0  0  0  0  0  0  0
   10.9190    5.2946   25.5098 F   0  0  0  0  0  0  0  0  0  0  0  0
    9.9937    3.6742   24.0536 C   0  0  0  0  0  0  0  0  0  0  0  0
  2  1  1  6
  2  3  1  0
  3  4  1  0
  4  5  2  0
  5  6  1  0
  7  6  1  1
  7  8  1  0
  8  9  1  0
  9 10  1  0
 10 11  1  0
  6 12  2  0
 12 13  1  0
 13 14  1  0
 14 15  2  0
 15 16  1  0
 16 17  2  0
 17 18  1  0
 18 19  2  0
  2 20  1  0
 20 21  2  0
 21 22  1  0
 22 23  2  0
 23 24  1  0
 24 25  1  0
 24 26  2  0
 13  4  1  0
 19 14  1  0
 26 20  1  0
 11  7  1  0
M  END
>  <cnnaffinity>  (193) 
-6.31613

>  <filename>  (193) 
CC(Cc1nc(C2CCOC2)nn1-c1cccnc1)c1cccc(F)c1

>  <enamine_id>  (193) 
PV-006965151588

$$$$

     RDKit          3D

 25 27  0  0  0  0  0  0  0  0999 V2000
    5.2458   -2.8279   26.6663 C   0  0  0  0  0  0  0  0  0  0  0  0
    6.3228   -3.1706   25.8287 O   0  0  0  0  0  0  0  0  0  0  0  0
    6.6745   -2.1936   24.8637 C   0  0  1  0  0  0  0  0  0  0  0  0
    7.7065   -1.2215   25.4335 C   0  0  0  0  0  0  0  0  0  0  0  0
    7.1773   -3.0114   23.6685 C   0  0  0  0  0  0  0  0  0  0  0  0
    7.4611   -2.1614   22.4937 C   0  0  0  0  0  0  0  0  0  0  0  0
    6.5478   -1.7823   21.6246 N   0  0  0  0  0  0  0  0  0  0  0  0
    7.2323   -0.9198   20.8267 N   0  0  0  0  0  0  0  0  0  0  0  0
    6.5735   -0.1936   19.7945 C   0  0  0  0  0  0  0  0  0  0  0  0
    5.4241    0.5494   20.0813 C   0  0  0  0  0  0  0  0  0  0  0  0
    4.8531    1.3033   19.0541 C   0  0  0  0  0  0  0  0  0  0  0  0
    5.4380    1.2792   17.7821 C   0  0  0  0  0  0  0  0  0  0  0  0
    6.5268    0.5498   17.4919 N   0  0  0  0  0  0  0  0  0  0  0  0
    7.0751   -0.1673   18.4803 C   0  0  0  0  0  0  0  0  0  0  0  0
    8.5081   -0.7954   21.2962 C   0  0  0  0  0  0  0  0  0  0  0  0
    9.5543    0.1097   20.7393 C   0  0  0  0  0  0  0  0  0  0  0  0
   10.3505    0.7844   21.8408 C   0  0  0  0  0  0  0  0  0  0  0  0
    9.8395    1.9664   22.4273 C   0  0  0  0  0  0  0  0  0  0  0  0
    8.5385    2.5848   21.9559 C   0  0  0  0  0  0  0  0  0  0  0  0
   10.5678    2.5845   23.4528 C   0  0  0  0  0  0  0  0  0  0  0  0
   11.7693    2.0271   23.9016 C   0  0  0  0  0  0  0  0  0  0  0  0
   12.2329    0.8324   23.3534 C   0  0  0  0  0  0  0  0  0  0  0  0
   11.5050    0.1555   22.3691 C   0  0  0  0  0  0  0  0  0  0  0  0
   11.9533   -1.2341   21.9645 C   0  0  0  0  0  0  0  0  0  0  0  0
    8.6832   -1.6108   22.3209 N   0  0  0  0  0  0  0  0  0  0  0  0
  1  2  1  0
  2  3  1  0
  3  4  1  1
  3  5  1  0
  5  6  1  0
  6  7  2  0
  7  8  1  0
  8  9  1  0
  9 10  2  0
 10 11  1  0
 11 12  2  0
 12 13  1  0
 13 14  2  0
  8 15  1  0
 15 16  1  0
 16 17  1  0
 17 18  2  0
 18 19  1  0
 18 20  1  0
 20 21  2  0
 21 22  1  0
 22 23  2  0
 23 24  1  0
 15 25  2  0
 25  6  1  0
 14  9  1  0
 23 17  1  0
M  END
>  <cnnaffinity>  (194) 
-6.31603

>  <filename>  (194) 
COC(C)Cc1nc(Cc2c(C)cccc2C)n(-c2cccnc2)n1

>  <enamine_id>  (194) 
PV-006834614591

$$$$

     RDKit          3D

 25 27  0  0  0  0  0  0  0  0999 V2000
    7.6744    0.0764   25.3525 C   0  0  0  0  0  0  0  0  0  0  0  0
    7.9821   -1.4044   25.5757 C   0  0  0  0  0  0  0  0  0  0  0  0
    7.9739   -1.8085   27.0439 C   0  0  0  0  0  0  0  0  0  0  0  0
    6.9794   -2.2302   24.9607 O   0  0  0  0  0  0  0  0  0  0  0  0
    7.2931   -2.8935   23.7388 C   0  0  0  0  0  0  0  0  0  0  0  0
    7.5193   -1.9808   22.5626 C   0  0  0  0  0  0  0  0  0  0  0  0
    6.6067   -1.5946   21.6974 N   0  0  0  0  0  0  0  0  0  0  0  0
    7.2874   -0.7293   20.8968 N   0  0  0  0  0  0  0  0  0  0  0  0
    6.6054   -0.0387   19.8548 C   0  0  0  0  0  0  0  0  0  0  0  0
    5.3994    0.6169   20.1208 C   0  0  0  0  0  0  0  0  0  0  0  0
    4.7886    1.3175   19.0786 C   0  0  0  0  0  0  0  0  0  0  0  0
    5.3860    1.3120   17.8123 C   0  0  0  0  0  0  0  0  0  0  0  0
    6.5246    0.6556   17.5407 N   0  0  0  0  0  0  0  0  0  0  0  0
    7.1194    0.0020   18.5460 C   0  0  0  0  0  0  0  0  0  0  0  0
    8.5716   -0.6131   21.3548 C   0  0  0  0  0  0  0  0  0  0  0  0
    9.6592    0.2646   20.8331 C   0  0  0  0  0  0  0  0  0  0  0  0
   10.2852    1.1186   21.9206 C   0  0  0  0  0  0  0  0  0  0  0  0
    9.6255    2.2008   22.5253 C   0  0  0  0  0  0  0  0  0  0  0  0
    8.0840    2.7430   21.9358 Cl  0  0  0  0  0  0  0  0  0  0  0  0
   10.1887    2.8692   23.6234 C   0  0  0  0  0  0  0  0  0  0  0  0
   11.3678    2.5284   24.1581 N   0  0  0  0  0  0  0  0  0  0  0  0
   12.0189    1.5025   23.5999 C   0  0  0  0  0  0  0  0  0  0  0  0
   11.5254    0.8102   22.4905 C   0  0  0  0  0  0  0  0  0  0  0  0
   12.2759   -0.1741   21.9685 F   0  0  0  0  0  0  0  0  0  0  0  0
    8.7496   -1.4313   22.3738 N   0  0  0  0  0  0  0  0  0  0  0  0
  1  2  1  0
  2  3  1  0
  2  4  1  0
  4  5  1  0
  5  6  1  0
  6  7  2  0
  7  8  1  0
  8  9  1  0
  9 10  2  0
 10 11  1  0
 11 12  2  0
 12 13  1  0
 13 14  2  0
  8 15  1  0
 15 16  1  0
 16 17  1  0
 17 18  2  0
 18 19  1  0
 18 20  1  0
 20 21  2  0
 21 22  1  0
 22 23  2  0
 23 24  1  0
 15 25  2  0
 25  6  1  0
 14  9  1  0
 23 17  1  0
M  END
>  <cnnaffinity>  (195) 
-6.31485

>  <filename>  (195) 
CC(C)OCc1nc(Cc2c(F)cncc2Cl)n(-c2cccnc2)n1

>  <enamine_id>  (195) 
PV-006893063111

$$$$

     RDKit          3D

 24 26  0  0  0  0  0  0  0  0999 V2000
    8.1222   -5.2936   24.4513 C   0  0  0  0  0  0  0  0  0  0  0  0
    8.1895   -4.3268   23.2712 C   0  0  0  0  0  0  0  0  0  0  0  0
    7.6023   -4.9593   22.0101 C   0  0  0  0  0  0  0  0  0  0  0  0
    7.4770   -3.0026   23.6130 C   0  0  0  0  0  0  0  0  0  0  0  0
    7.6641   -1.9528   22.5694 C   0  0  0  0  0  0  0  0  0  0  0  0
    6.7379   -1.6101   21.6994 N   0  0  0  0  0  0  0  0  0  0  0  0
    7.3619   -0.6744   20.9381 N   0  0  0  0  0  0  0  0  0  0  0  0
    6.6600    0.0037   19.9015 C   0  0  0  0  0  0  0  0  0  0  0  0
    5.4439    0.6457   20.1660 C   0  0  0  0  0  0  0  0  0  0  0  0
    4.8119    1.3116   19.1105 C   0  0  0  0  0  0  0  0  0  0  0  0
    5.4017    1.2946   17.8401 C   0  0  0  0  0  0  0  0  0  0  0  0
    6.5635    0.6763   17.5798 N   0  0  0  0  0  0  0  0  0  0  0  0
    7.1723    0.0553   18.5950 C   0  0  0  0  0  0  0  0  0  0  0  0
    8.6283   -0.4898   21.4126 C   0  0  0  0  0  0  0  0  0  0  0  0
    9.5291    0.6099   20.9425 C   0  0  0  0  0  0  0  0  0  0  0  0
    9.0579    2.0133   21.3986 C   0  0  0  0  0  0  0  0  0  0  0  0
    8.9397    2.1087   22.9019 C   0  0  0  0  0  0  0  0  0  0  0  0
    7.7103    1.8735   23.5328 C   0  0  0  0  0  0  0  0  0  0  0  0
    7.6153    1.8943   24.9210 C   0  0  0  0  0  0  0  0  0  0  0  0
    8.7762    2.1405   25.6554 C   0  0  0  0  0  0  0  0  0  0  0  0
    9.9731    2.3475   25.0911 N   0  0  0  0  0  0  0  0  0  0  0  0
   10.0336    2.3185   23.7699 C   0  0  0  0  0  0  0  0  0  0  0  0
   11.6171    2.5806   23.1012 Cl  0  0  0  0  0  0  0  0  0  0  0  0
    8.8520   -1.3023   22.4266 N   0  0  0  0  0  0  0  0  0  0  0  0
  1  2  1  0
  2  3  1  0
  2  4  1  0
  4  5  1  0
  5  6  2  0
  6  7  1  0
  7  8  1  0
  8  9  2  0
  9 10  1  0
 10 11  2  0
 11 12  1  0
 12 13  2  0
  7 14  1  0
 14 15  1  0
 15 16  1  0
 16 17  1  0
 17 18  2  0
 18 19  1  0
 19 20  2  0
 20 21  1  0
 21 22  2  0
 22 23  1  0
 14 24  2  0
 24  5  1  0
 13  8  1  0
 22 17  1  0
M  END
>  <cnnaffinity>  (196) 
-6.31236

>  <filename>  (196) 
CC(C)Cc1nc(CCc2cccnc2Cl)n(-c2cccnc2)n1

>  <enamine_id>  (196) 
PV-006905149412

$$$$

     RDKit          3D

 25 28  0  0  0  0  0  0  0  0999 V2000
   13.7296    1.9551   23.7257 C   0  0  0  0  0  0  0  0  0  0  0  0
   12.6414    1.5358   22.8566 N   0  0  1  0  0  4  0  0  0  0  0  0
   12.5195    0.0329   22.7405 C   0  0  0  0  0  0  0  0  0  0  0  0
   11.5271   -0.2655   21.6587 C   0  0  0  0  0  0  0  0  0  0  0  0
   10.5327    0.5771   21.3671 C   0  0  0  0  0  0  0  0  0  0  0  0
    9.3940    0.1086   20.5121 C   0  0  0  0  0  0  0  0  0  0  0  0
    8.3949   -0.7021   21.2821 C   0  0  0  0  0  0  0  0  0  0  0  0
    8.6292   -1.4549   22.3356 N   0  0  0  0  0  0  0  0  0  0  0  0
    7.4285   -2.0489   22.5711 C   0  0  0  0  0  0  0  0  0  0  0  0
    7.2637   -3.0161   23.7054 C   0  0  2  0  0  0  0  0  0  0  0  0
    7.4537   -2.3048   25.0763 C   0  0  0  0  0  0  0  0  0  0  0  0
    7.5489   -3.2720   26.2344 C   0  0  0  0  0  0  0  0  0  0  0  0
    7.7322   -4.5852   26.0818 C   0  0  0  0  0  0  0  0  0  0  0  0
    7.9761   -5.2346   24.7364 C   0  0  0  0  0  0  0  0  0  0  0  0
    8.2545   -4.2077   23.6196 C   0  0  0  0  0  0  0  0  0  0  0  0
    6.4684   -1.6980   21.7336 N   0  0  0  0  0  0  0  0  0  0  0  0
    7.0991   -0.8421   20.8886 N   0  0  0  0  0  0  0  0  0  0  0  0
    6.4389   -0.1505   19.8435 C   0  0  0  0  0  0  0  0  0  0  0  0
    5.2717    0.5792   20.0888 C   0  0  0  0  0  0  0  0  0  0  0  0
    4.7473    1.3378   19.0372 C   0  0  0  0  0  0  0  0  0  0  0  0
    5.3962    1.3339   17.7961 C   0  0  0  0  0  0  0  0  0  0  0  0
    6.5088    0.6219   17.5559 N   0  0  0  0  0  0  0  0  0  0  0  0
    7.0049   -0.1039   18.5580 C   0  0  0  0  0  0  0  0  0  0  0  0
   10.4323    1.9772   21.9446 C   0  0  0  0  0  0  0  0  0  0  0  0
   11.2834    2.1063   23.2036 C   0  0  0  0  0  0  0  0  0  0  0  0
  2  1  1  1
  2  3  1  0
  3  4  1  0
  4  5  2  0
  5  6  1  0
  6  7  1  0
  7  8  2  0
  8  9  1  0
 10  9  1  6
 10 11  1  0
 11 12  1  0
 12 13  2  0
 13 14  1  0
 14 15  1  0
  9 16  2  0
 16 17  1  0
 17 18  1  0
 18 19  2  0
 19 20  1  0
 20 21  2  0
 21 22  1  0
 22 23  2  0
  5 24  1  0
 24 25  1  0
 25  2  1  0
 17  7  1  0
 23 18  1  0
 15 10  1  0
M  CHG  1   2   1
M  END
>  <cnnaffinity>  (197) 
-6.31225

>  <filename>  (197) 
C[NH+]1CC=C(Cc2nc(C3CC=CCC3)nn2-c2cccnc2)CC1

>  <enamine_id>  (197) 
PV-007017641925

$$$$

     RDKit          3D

 24 27  0  0  0  0  0  0  0  0999 V2000
    7.9901   -4.2142   27.8769 Br  0  0  0  0  0  0  0  0  0  0  0  0
    8.6237   -2.6849   26.9247 C   0  0  0  0  0  0  0  0  0  0  0  0
    8.9440   -2.9244   25.5974 C   0  0  0  0  0  0  0  0  0  0  0  0
    9.3940   -1.8939   24.7866 C   0  0  0  0  0  0  0  0  0  0  0  0
    9.5337   -0.6106   25.3343 C   0  0  0  0  0  0  0  0  0  0  0  0
   10.0120    0.4385   24.5221 N   0  0  0  0  0  0  0  0  0  0  0  0
   10.7600    1.5075   24.9053 N   0  0  0  0  0  0  0  0  0  0  0  0
   11.1432    2.0413   23.7592 C   0  0  0  0  0  0  0  0  0  0  0  0
   12.0007    3.2845   23.5965 C   0  0  0  0  0  0  0  0  0  0  0  0
   12.3826    3.7092   22.1707 C   0  0  0  0  0  0  0  0  0  0  0  0
   13.4589    3.2133   23.1232 C   0  0  0  0  0  0  0  0  0  0  0  0
   10.6450    1.4014   22.6385 N   0  0  0  0  0  0  0  0  0  0  0  0
    9.9381    0.4373   23.1401 C   0  0  0  0  0  0  0  0  0  0  0  0
    9.1134   -0.5195   22.3371 C   0  0  0  0  0  0  0  0  0  0  0  0
    8.2182    0.1924   21.3359 C   0  0  0  0  0  0  0  0  0  0  0  0
    7.2413   -0.8114   20.7374 C   0  0  0  0  0  0  0  0  0  0  0  0
    6.5257   -0.0981   19.6321 C   0  0  0  0  0  0  0  0  0  0  0  0
    5.3467    0.5983   19.8875 C   0  0  0  0  0  0  0  0  0  0  0  0
    4.8025    1.3380   18.8412 C   0  0  0  0  0  0  0  0  0  0  0  0
    5.4398    1.3562   17.5938 C   0  0  0  0  0  0  0  0  0  0  0  0
    6.5714    0.6737   17.3441 N   0  0  0  0  0  0  0  0  0  0  0  0
    7.1042   -0.0343   18.3553 C   0  0  0  0  0  0  0  0  0  0  0  0
    9.2031   -0.4435   26.6915 C   0  0  0  0  0  0  0  0  0  0  0  0
    8.7498   -1.4574   27.4683 N   0  0  0  0  0  0  0  0  0  0  0  0
  1  2  1  0
  2  3  2  0
  3  4  1  0
  4  5  2  0
  5  6  1  0
  6  7  1  0
  7  8  2  0
  8  9  1  0
  9 10  1  0
 10 11  1  0
  8 12  1  0
 12 13  2  0
 13 14  1  0
 14 15  1  0
 15 16  1  0
 16 17  1  0
 17 18  2  0
 18 19  1  0
 19 20  2  0
 20 21  1  0
 21 22  2  0
  5 23  1  0
 23 24  2  0
 24  2  1  0
 13  6  1  0
 22 17  1  0
 11  9  1  0
M  END
>  <cnnaffinity>  (198) 
-6.31033

>  <filename>  (198) 
Brc1ccc(-n2nc(C3CC3)nc2CCCc2cccnc2)cn1

>  <enamine_id>  (198) 
PV-004574185307

$$$$

     RDKit          3D

 25 28  0  0  0  0  0  0  0  0999 V2000
   11.9423    2.0864   21.9321 O   0  0  0  0  0  0  0  0  0  0  0  0
   10.6617    2.6824   21.7537 C   0  0  2  0  0  0  0  0  0  0  0  0
   10.5644    3.9573   22.6074 C   0  0  0  0  0  0  0  0  0  0  0  0
    9.1716    4.6125   22.6944 C   0  0  0  0  0  0  0  0  0  0  0  0
    8.0643    3.5955   22.9883 C   0  0  0  0  0  0  0  0  0  0  0  0
    8.1346    2.3828   22.0578 C   0  0  0  0  0  0  0  0  0  0  0  0
    9.5165    1.7024   22.0694 C   0  0  1  0  0  0  0  0  0  0  0  0
    9.5569    0.5113   21.0818 C   0  0  0  0  0  0  0  0  0  0  0  0
    8.5982   -0.5689   21.4128 C   0  0  0  0  0  0  0  0  0  0  0  0
    8.7897   -1.4382   22.3837 N   0  0  0  0  0  0  0  0  0  0  0  0
    7.5966   -2.0695   22.4824 C   0  0  0  0  0  0  0  0  0  0  0  0
    7.4359   -3.1448   23.5245 C   0  0  1  0  0  0  0  0  0  0  0  0
    6.0121   -3.2263   24.1111 C   0  0  0  0  0  0  0  0  0  0  0  0
    5.0601   -3.9601   23.1986 C   0  0  0  0  0  0  0  0  0  0  0  0
    5.4587   -4.7215   22.1766 C   0  0  0  0  0  0  0  0  0  0  0  0
    6.9097   -4.9342   21.8123 C   0  0  0  0  0  0  0  0  0  0  0  0
    7.8564   -4.5177   22.9480 C   0  0  0  0  0  0  0  0  0  0  0  0
    6.6872   -1.6790   21.6082 N   0  0  0  0  0  0  0  0  0  0  0  0
    7.3474   -0.7342   20.8857 N   0  0  0  0  0  0  0  0  0  0  0  0
    6.6649   -0.0438   19.8446 C   0  0  0  0  0  0  0  0  0  0  0  0
    5.4558    0.5999   20.1267 C   0  0  0  0  0  0  0  0  0  0  0  0
    4.8257    1.2972   19.0933 C   0  0  0  0  0  0  0  0  0  0  0  0
    5.4082    1.3064   17.8204 C   0  0  0  0  0  0  0  0  0  0  0  0
    6.5437    0.6514   17.5280 N   0  0  0  0  0  0  0  0  0  0  0  0
    7.1521   -0.0115   18.5228 C   0  0  0  0  0  0  0  0  0  0  0  0
  2  1  1  1
  2  3  1  0
  3  4  1  0
  4  5  1  0
  5  6  1  0
  6  7  1  0
  7  8  1  6
  8  9  1  0
  9 10  2  0
 10 11  1  0
 12 11  1  6
 12 13  1  0
 13 14  1  0
 14 15  2  0
 15 16  1  0
 16 17  1  0
 11 18  2  0
 18 19  1  0
 19 20  1  0
 20 21  2  0
 21 22  1  0
 22 23  2  0
 23 24  1  0
 24 25  2  0
  7  2  1  0
 19  9  1  0
 25 20  1  0
 17 12  1  0
M  END
>  <cnnaffinity>  (199) 
-6.30782

>  <filename>  (199) 
O[C@@H]1CCCC[C@H]1Cc1nc(C2CC=CCC2)nn1-c1cccnc1

>  <enamine_id>  (199) 
PV-006864101962

$$$$

     RDKit          3D

 23 26  0  0  0  0  0  0  0  0999 V2000
   11.7396   -0.0782   21.9844 C   0  0  0  0  0  0  0  0  0  0  0  0
   10.7326    0.7177   21.6242 C   0  0  0  0  0  0  0  0  0  0  0  0
    9.6562    0.2368   20.6875 C   0  0  0  0  0  0  0  0  0  0  0  0
    8.6291   -0.6247   21.3435 C   0  0  0  0  0  0  0  0  0  0  0  0
    8.8424   -1.4866   22.3108 N   0  0  0  0  0  0  0  0  0  0  0  0
    7.6083   -1.9978   22.5459 C   0  0  0  0  0  0  0  0  0  0  0  0
    7.3887   -2.9749   23.6554 C   0  0  0  0  0  0  0  0  0  0  0  0
    8.2453   -4.2528   23.5334 C   0  0  0  0  0  0  0  0  0  0  0  0
    8.3458   -4.8175   24.9620 C   0  0  0  0  0  0  0  0  0  0  0  0
    8.0279   -3.6492   25.9294 C   0  0  0  0  0  0  0  0  0  0  0  0
    7.7302   -2.4163   25.0558 C   0  0  0  0  0  0  0  0  0  0  0  0
    6.6630   -1.5506   21.7500 N   0  0  0  0  0  0  0  0  0  0  0  0
    7.3278   -0.6880   20.9367 N   0  0  0  0  0  0  0  0  0  0  0  0
    6.6502    0.0042   19.9002 C   0  0  0  0  0  0  0  0  0  0  0  0
    5.4354    0.6470   20.1651 C   0  0  0  0  0  0  0  0  0  0  0  0
    4.8123    1.3122   19.1080 C   0  0  0  0  0  0  0  0  0  0  0  0
    5.4012    1.2955   17.8364 C   0  0  0  0  0  0  0  0  0  0  0  0
    6.5590    0.6714   17.5756 N   0  0  0  0  0  0  0  0  0  0  0  0
    7.1654    0.0507   18.5921 C   0  0  0  0  0  0  0  0  0  0  0  0
   10.5747    2.0996   22.2265 C   0  0  0  0  0  0  0  0  0  0  0  0
   11.4736    2.2851   23.4554 C   0  0  0  0  0  0  0  0  0  0  0  0
   12.7671    1.7527   23.2185 O   0  0  0  0  0  0  0  0  0  0  0  0
   12.7231    0.3461   23.0494 C   0  0  0  0  0  0  0  0  0  0  0  0
  1  2  2  0
  2  3  1  0
  3  4  1  0
  4  5  2  0
  5  6  1  0
  6  7  1  0
  7  8  1  0
  8  9  1  0
  9 10  1  0
 10 11  1  0
  6 12  2  0
 12 13  1  0
 13 14  1  0
 14 15  2  0
 15 16  1  0
 16 17  2  0
 17 18  1  0
 18 19  2  0
  2 20  1  0
 20 21  1  0
 21 22  1  0
 22 23  1  0
 23  1  1  0
 13  4  1  0
 19 14  1  0
 11  7  1  0
M  END
>  <cnnaffinity>  (200) 
-6.30668

>  <filename>  (200) 
C1=C(Cc2nc(C3CCCC3)nn2-c2cccnc2)CCOC1

>  <enamine_id>  (200) 
PV-006948677426

$$$$

     RDKit          3D

 24 27  0  0  0  0  0  0  0  0999 V2000
   13.6577    0.6965   23.5397 C   0  0  0  0  0  0  0  0  0  0  0  0
   12.3265    0.9339   22.9219 C   0  0  0  0  0  0  0  0  0  0  0  0
   11.5096    1.8910   23.3178 N   0  0  0  0  0  0  0  0  0  0  0  0
   10.4605    1.7302   22.4804 N   0  0  0  0  0  0  0  0  0  0  0  0
   10.6783    0.6996   21.6507 C   0  0  0  0  0  0  0  0  0  0  0  0
    9.6611    0.2047   20.6891 C   0  0  0  0  0  0  0  0  0  0  0  0
    8.6224   -0.6209   21.3447 C   0  0  0  0  0  0  0  0  0  0  0  0
    8.8436   -1.4650   22.3224 N   0  0  0  0  0  0  0  0  0  0  0  0
    7.6212   -2.0023   22.5433 C   0  0  0  0  0  0  0  0  0  0  0  0
    7.3756   -2.9771   23.6501 C   0  0  1  0  0  0  0  0  0  0  0  0
    6.5513   -2.3217   24.7968 C   0  0  0  0  0  0  0  0  0  0  0  0
    6.0521   -3.3331   25.7995 C   0  0  0  0  0  0  0  0  0  0  0  0
    5.9936   -4.6463   25.5559 C   0  0  0  0  0  0  0  0  0  0  0  0
    6.4946   -5.2778   24.2756 C   0  0  0  0  0  0  0  0  0  0  0  0
    6.6710   -4.2569   23.1391 C   0  0  0  0  0  0  0  0  0  0  0  0
    6.6652   -1.5610   21.7423 N   0  0  0  0  0  0  0  0  0  0  0  0
    7.3243   -0.6924   20.9371 N   0  0  0  0  0  0  0  0  0  0  0  0
    6.6427   -0.0097   19.8981 C   0  0  0  0  0  0  0  0  0  0  0  0
    5.4314    0.6360   20.1624 C   0  0  0  0  0  0  0  0  0  0  0  0
    4.8080    1.3097   19.1085 C   0  0  0  0  0  0  0  0  0  0  0  0
    5.3969    1.2946   17.8377 C   0  0  0  0  0  0  0  0  0  0  0  0
    6.5515    0.6656   17.5780 N   0  0  0  0  0  0  0  0  0  0  0  0
    7.1583    0.0391   18.5896 C   0  0  0  0  0  0  0  0  0  0  0  0
   11.8586    0.1807   21.8829 N   0  0  0  0  0  0  0  0  0  0  0  0
  1  2  1  0
  2  3  2  0
  3  4  1  0
  4  5  1  0
  5  6  1  0
  6  7  1  0
  7  8  2  0
  8  9  1  0
 10  9  1  6
 10 11  1  0
 11 12  1  0
 12 13  2  0
 13 14  1  0
 14 15  1  0
  9 16  2  0
 16 17  1  0
 17 18  1  0
 18 19  2  0
 19 20  1  0
 20 21  2  0
 21 22  1  0
 22 23  2  0
  5 24  2  0
 24  2  1  0
 17  7  1  0
 23 18  1  0
 15 10  1  0
M  END
>  <cnnaffinity>  (201) 
-6.30632

>  <filename>  (201) 
Cc1n[nH]c(Cc2nc(C3CC=CCC3)nn2-c2cccnc2)n1

>  <enamine_id>  (201) 
PV-006988908121

$$$$

     RDKit          3D

 24 27  0  0  0  0  0  0  0  0999 V2000
   12.0719    0.4655   23.0431 C   0  0  0  0  0  0  0  0  0  0  0  0
   10.9713    1.4644   22.9680 C   0  0  0  0  0  0  0  0  0  0  0  0
   10.8155    2.4366   23.8262 N   0  0  0  0  0  0  0  0  0  0  0  0
    9.6382    3.0721   23.4518 O   0  0  0  0  0  0  0  0  0  0  0  0
    9.1248    2.4621   22.3752 C   0  0  0  0  0  0  0  0  0  0  0  0
    7.8062    2.8957   21.8404 C   0  0  0  0  0  0  0  0  0  0  0  0
    9.9240    1.4312   22.0009 C   0  0  0  0  0  0  0  0  0  0  0  0
    9.6367    0.3821   20.9504 C   0  0  0  0  0  0  0  0  0  0  0  0
    8.6015   -0.6265   21.3645 C   0  0  0  0  0  0  0  0  0  0  0  0
    8.8148   -1.5095   22.3166 N   0  0  0  0  0  0  0  0  0  0  0  0
    7.5949   -2.0921   22.4839 C   0  0  0  0  0  0  0  0  0  0  0  0
    7.3847   -3.0973   23.5750 C   0  0  0  0  0  0  0  0  0  0  0  0
    7.5821   -2.5145   24.9939 C   0  0  0  0  0  0  0  0  0  0  0  0
    7.9184   -3.7152   25.8950 C   0  0  0  0  0  0  0  0  0  0  0  0
    8.4178   -4.8387   24.9571 C   0  0  0  0  0  0  0  0  0  0  0  0
    8.3989   -4.2556   23.5365 C   0  0  0  0  0  0  0  0  0  0  0  0
    6.6615   -1.6579   21.6669 N   0  0  0  0  0  0  0  0  0  0  0  0
    7.3139   -0.7227   20.9188 N   0  0  0  0  0  0  0  0  0  0  0  0
    6.6281   -0.0345   19.8704 C   0  0  0  0  0  0  0  0  0  0  0  0
    5.4173    0.6205   20.1321 C   0  0  0  0  0  0  0  0  0  0  0  0
    4.7975    1.3146   19.0870 C   0  0  0  0  0  0  0  0  0  0  0  0
    5.3963    1.3136   17.8224 C   0  0  0  0  0  0  0  0  0  0  0  0
    6.5377    0.6602   17.5515 N   0  0  0  0  0  0  0  0  0  0  0  0
    7.1348    0.0081   18.5591 C   0  0  0  0  0  0  0  0  0  0  0  0
  1  2  1  0
  2  3  2  0
  3  4  1  0
  4  5  1  0
  5  6  1  0
  5  7  2  0
  7  8  1  0
  8  9  1  0
  9 10  2  0
 10 11  1  0
 11 12  1  0
 12 13  1  0
 13 14  1  0
 14 15  1  0
 15 16  1  0
 11 17  2  0
 17 18  1  0
 18 19  1  0
 19 20  2  0
 20 21  1  0
 21 22  2  0
 22 23  1  0
 23 24  2  0
  7  2  1  0
 18  9  1  0
 24 19  1  0
 16 12  1  0
M  END
>  <cnnaffinity>  (202) 
-6.30518

>  <filename>  (202) 
Cc1noc(C)c1Cc1nc(C2CCCC2)nn1-c1cccnc1

>  <enamine_id>  (202) 
PV-007095920281

$$$$

     RDKit          3D

 24 26  0  0  0  0  0  0  0  0999 V2000
    8.1223   -6.4686   22.3788 C   0  0  0  0  0  0  0  0  0  0  0  0
    8.0969   -5.5327   23.4307 O   0  0  0  0  0  0  0  0  0  0  0  0
    7.5793   -4.2665   23.0870 C   0  0  0  0  0  0  0  0  0  0  0  0
    8.6092   -3.5096   22.2476 C   0  0  0  0  0  0  0  0  0  0  0  0
    8.1920   -2.1283   21.9538 C   0  0  0  0  0  0  0  0  0  0  0  0
    7.7627   -1.7869   20.7616 N   0  0  0  0  0  0  0  0  0  0  0  0
    7.3070   -0.5274   20.9564 N   0  0  0  0  0  0  0  0  0  0  0  0
    6.6160    0.1062   19.9041 C   0  0  0  0  0  0  0  0  0  0  0  0
    5.3900    0.7416   20.1120 C   0  0  0  0  0  0  0  0  0  0  0  0
    4.7891    1.3608   19.0167 C   0  0  0  0  0  0  0  0  0  0  0  0
    5.4252    1.3120   17.7699 C   0  0  0  0  0  0  0  0  0  0  0  0
    6.5767    0.6473   17.5593 N   0  0  0  0  0  0  0  0  0  0  0  0
    7.1407    0.0370   18.6008 C   0  0  0  0  0  0  0  0  0  0  0  0
    7.5434   -0.1578   22.2534 C   0  0  0  0  0  0  0  0  0  0  0  0
    7.3033    1.2021   22.8500 C   0  0  0  0  0  0  0  0  0  0  0  0
    8.5790    1.7255   23.4953 C   0  0  0  0  0  0  0  0  0  0  0  0
    9.6420    2.1858   22.6952 C   0  0  0  0  0  0  0  0  0  0  0  0
    9.4513    2.1893   20.9853 Cl  0  0  0  0  0  0  0  0  0  0  0  0
   10.8655    2.5774   23.2668 C   0  0  0  0  0  0  0  0  0  0  0  0
   12.1700    3.2123   22.3150 Cl  0  0  0  0  0  0  0  0  0  0  0  0
   11.0528    2.4250   24.6406 C   0  0  0  0  0  0  0  0  0  0  0  0
   10.0110    1.9527   25.4381 C   0  0  0  0  0  0  0  0  0  0  0  0
    8.7779    1.6176   24.8756 C   0  0  0  0  0  0  0  0  0  0  0  0
    8.0866   -1.1687   22.9051 N   0  0  0  0  0  0  0  0  0  0  0  0
  1  2  1  0
  2  3  1  0
  3  4  1  0
  4  5  1  0
  5  6  2  0
  6  7  1  0
  7  8  1  0
  8  9  2  0
  9 10  1  0
 10 11  2  0
 11 12  1  0
 12 13  2  0
  7 14  1  0
 14 15  1  0
 15 16  1  0
 16 17  2  0
 17 18  1  0
 17 19  1  0
 19 20  1  0
 19 21  2  0
 21 22  1  0
 22 23  2  0
 14 24  2  0
 24  5  1  0
 13  8  1  0
 23 16  1  0
M  END
>  <cnnaffinity>  (203) 
-6.30416

>  <filename>  (203) 
COCCc1nc(Cc2cccc(Cl)c2Cl)n(-c2cccnc2)n1

>  <enamine_id>  (203) 
PV-006753887446

$$$$

     RDKit          3D

 25 28  0  0  0  0  0  0  0  0999 V2000
    4.8212    1.3009   19.1091 C   0  0  0  0  0  0  0  0  0  0  0  0
    5.4140    1.2933   17.8414 C   0  0  0  0  0  0  0  0  0  0  0  0
    6.5602    0.6520   17.5685 N   0  0  0  0  0  0  0  0  0  0  0  0
    7.1784    0.0281   18.5781 C   0  0  0  0  0  0  0  0  0  0  0  0
    6.6860    0.0106   19.8969 C   0  0  0  0  0  0  0  0  0  0  0  0
    7.3815   -0.6393   20.9533 N   0  0  0  0  0  0  0  0  0  0  0  0
    6.7531   -1.5864   21.6984 N   0  0  0  0  0  0  0  0  0  0  0  0
    7.6832   -1.9574   22.5580 C   0  0  0  0  0  0  0  0  0  0  0  0
    7.4290   -2.9345   23.6728 C   0  0  0  0  0  0  0  0  0  0  0  0
    6.5161   -2.3662   24.7896 C   0  0  0  0  0  0  0  0  0  0  0  0
    5.8685   -3.5839   25.4782 C   0  0  0  0  0  0  0  0  0  0  0  0
    6.0379   -4.7812   24.5097 C   0  0  0  0  0  0  0  0  0  0  0  0
    6.7129   -4.2300   23.2398 C   0  0  0  0  0  0  0  0  0  0  0  0
    8.8718   -1.3124   22.4255 N   0  0  0  0  0  0  0  0  0  0  0  0
    8.6468   -0.4686   21.4352 C   0  0  0  0  0  0  0  0  0  0  0  0
    9.5405    0.6105   20.9269 C   0  0  0  0  0  0  0  0  0  0  0  0
    9.0207    2.0286   21.2355 C   0  0  0  0  0  0  0  0  0  0  0  0
    8.7705    2.2699   22.7428 C   0  0  0  0  0  0  0  0  0  0  0  0
   10.0134    2.0354   23.5569 C   0  0  0  0  0  0  0  0  0  0  0  0
   10.1653    0.9361   24.4323 C   0  0  0  0  0  0  0  0  0  0  0  0
   11.3347    0.6274   25.0307 N   0  0  0  0  0  0  0  0  0  0  0  0
   12.3491    1.4654   24.7506 C   0  0  0  0  0  0  0  0  0  0  0  0
   12.1948    2.6052   23.9398 C   0  0  0  0  0  0  0  0  0  0  0  0
   11.0327    2.8947   23.3391 N   0  0  0  0  0  0  0  0  0  0  0  0
    5.4586    0.6338   20.1584 C   0  0  0  0  0  0  0  0  0  0  0  0
  1  2  2  0
  2  3  1  0
  3  4  2  0
  4  5  1  0
  5  6  1  0
  6  7  1  0
  7  8  2  0
  8  9  1  0
  9 10  1  0
 10 11  1  0
 11 12  1  0
 12 13  1  0
  8 14  1  0
 14 15  2  0
 15 16  1  0
 16 17  1  0
 17 18  1  0
 18 19  1  0
 19 20  2  0
 20 21  1  0
 21 22  2  0
 22 23  1  0
 23 24  2  0
  5 25  2  0
 25  1  1  0
 15  6  1  0
 24 19  1  0
 13  9  1  0
M  END
>  <cnnaffinity>  (204) 
-6.30362

>  <filename>  (204) 
c1cncc(-n2nc(C3CCCC3)nc2CCCc2cnccn2)c1

>  <enamine_id>  (204) 
PV-007007192598

$$$$

     RDKit          3D

 26 29  0  0  0  0  0  0  0  0999 V2000
    7.4783    5.7817   26.5446 F   0  0  0  0  0  0  0  0  0  0  0  0
    7.8606    4.8450   25.6629 C   0  0  0  0  0  0  0  0  0  0  0  0
    7.8462    5.1324   24.3071 C   0  0  0  0  0  0  0  0  0  0  0  0
    8.2474    4.1443   23.3937 C   0  0  0  0  0  0  0  0  0  0  0  0
    8.6591    2.8744   23.8245 C   0  0  0  0  0  0  0  0  0  0  0  0
    9.0673    1.8580   23.0191 O   0  0  0  0  0  0  0  0  0  0  0  0
    9.0594    1.9912   21.5991 C   0  0  0  0  0  0  0  0  0  0  0  0
    9.4979    0.6460   21.0153 C   0  0  0  0  0  0  0  0  0  0  0  0
    8.6063   -0.4649   21.4432 C   0  0  0  0  0  0  0  0  0  0  0  0
    8.8339   -1.2972   22.4306 N   0  0  0  0  0  0  0  0  0  0  0  0
    7.6528   -1.9649   22.5543 C   0  0  0  0  0  0  0  0  0  0  0  0
    7.4222   -2.9331   23.6596 C   0  0  0  0  0  0  0  0  0  0  0  0
    7.5298   -2.3275   25.1001 C   0  0  0  0  0  0  0  0  0  0  0  0
    8.7191   -3.2721   25.3971 C   0  0  0  0  0  0  0  0  0  0  0  0
    8.6041   -3.8942   23.9858 C   0  0  0  0  0  0  0  0  0  0  0  0
    6.7310   -1.6252   21.6785 N   0  0  0  0  0  0  0  0  0  0  0  0
    7.3520   -0.6656   20.9384 N   0  0  0  0  0  0  0  0  0  0  0  0
    6.6574    0.0124   19.8995 C   0  0  0  0  0  0  0  0  0  0  0  0
    5.4389    0.6474   20.1646 C   0  0  0  0  0  0  0  0  0  0  0  0
    4.8124    1.3119   19.1079 C   0  0  0  0  0  0  0  0  0  0  0  0
    5.4007    1.2965   17.8367 C   0  0  0  0  0  0  0  0  0  0  0  0
    6.5593    0.6724   17.5743 N   0  0  0  0  0  0  0  0  0  0  0  0
    7.1679    0.0518   18.5903 C   0  0  0  0  0  0  0  0  0  0  0  0
    8.6509    2.6370   25.2221 C   0  0  0  0  0  0  0  0  0  0  0  0
    9.0248    1.4325   25.6936 F   0  0  0  0  0  0  0  0  0  0  0  0
    8.2630    3.6007   26.1442 C   0  0  0  0  0  0  0  0  0  0  0  0
  1  2  1  0
  2  3  2  0
  3  4  1  0
  4  5  2  0
  5  6  1  0
  6  7  1  0
  7  8  1  0
  8  9  1  0
  9 10  2  0
 10 11  1  0
 11 12  1  0
 12 13  1  0
 13 14  1  0
 14 15  1  0
 11 16  2  0
 16 17  1  0
 17 18  1  0
 18 19  2  0
 19 20  1  0
 20 21  2  0
 21 22  1  0
 22 23  2  0
  5 24  1  0
 24 25  1  0
 24 26  2  0
 26  2  1  0
 17  9  1  0
 23 18  1  0
 15 12  1  0
M  END
>  <cnnaffinity>  (205) 
-6.30246

>  <filename>  (205) 
Fc1ccc(OCCc2nc(C3CCC3)nn2-c2cccnc2)c(F)c1

>  <enamine_id>  (205) 
PV-006857127008

$$$$

     RDKit          3D

 26 29  0  0  0  0  0  0  0  0999 V2000
    7.7380    5.6892   26.7528 F   0  0  0  0  0  0  0  0  0  0  0  0
    8.0753    4.7712   25.8344 C   0  0  0  0  0  0  0  0  0  0  0  0
    7.9625    5.0729   24.4853 C   0  0  0  0  0  0  0  0  0  0  0  0
    8.3178    4.1045   23.5375 C   0  0  0  0  0  0  0  0  0  0  0  0
    8.7861    2.8373   23.9246 C   0  0  0  0  0  0  0  0  0  0  0  0
    9.1521    1.8485   23.0739 O   0  0  0  0  0  0  0  0  0  0  0  0
    9.0652    2.0027   21.6599 C   0  0  0  0  0  0  0  0  0  0  0  0
    9.4847    0.6687   21.0345 C   0  0  0  0  0  0  0  0  0  0  0  0
    8.6023   -0.4523   21.4586 C   0  0  0  0  0  0  0  0  0  0  0  0
    8.8377   -1.2791   22.4518 N   0  0  0  0  0  0  0  0  0  0  0  0
    7.6696   -1.9624   22.5717 C   0  0  0  0  0  0  0  0  0  0  0  0
    7.4342   -2.9149   23.6932 C   0  0  0  0  0  0  0  0  0  0  0  0
    8.6527   -3.7936   24.0801 C   0  0  0  0  0  0  0  0  0  0  0  0
    8.7078   -3.0972   25.7676 S   0  0  0  0  0  0  0  0  0  0  0  0
    7.2654   -2.2162   25.0795 C   0  0  0  0  0  0  0  0  0  0  0  0
    6.7443   -1.6417   21.6936 N   0  0  0  0  0  0  0  0  0  0  0  0
    7.3532   -0.6753   20.9462 N   0  0  0  0  0  0  0  0  0  0  0  0
    6.6560    0.0042   19.9038 C   0  0  0  0  0  0  0  0  0  0  0  0
    5.4389    0.6442   20.1661 C   0  0  0  0  0  0  0  0  0  0  0  0
    4.8131    1.3107   19.1088 C   0  0  0  0  0  0  0  0  0  0  0  0
    5.4006    1.2958   17.8375 C   0  0  0  0  0  0  0  0  0  0  0  0
    6.5587    0.6703   17.5767 N   0  0  0  0  0  0  0  0  0  0  0  0
    7.1669    0.0484   18.5929 C   0  0  0  0  0  0  0  0  0  0  0  0
    8.8856    2.5742   25.3153 C   0  0  0  0  0  0  0  0  0  0  0  0
    9.4535    1.0408   25.8965 Cl  0  0  0  0  0  0  0  0  0  0  0  0
    8.5297    3.5312   26.2651 C   0  0  0  0  0  0  0  0  0  0  0  0
  1  2  1  0
  2  3  2  0
  3  4  1  0
  4  5  2  0
  5  6  1  0
  6  7  1  0
  7  8  1  0
  8  9  1  0
  9 10  2  0
 10 11  1  0
 11 12  1  0
 12 13  1  0
 13 14  1  0
 14 15  1  0
 11 16  2  0
 16 17  1  0
 17 18  1  0
 18 19  2  0
 19 20  1  0
 20 21  2  0
 21 22  1  0
 22 23  2  0
  5 24  1  0
 24 25  1  0
 24 26  2  0
 26  2  1  0
 17  9  1  0
 23 18  1  0
 15 12  1  0
M  END
>  <cnnaffinity>  (206) 
-6.30062

>  <filename>  (206) 
Fc1ccc(OCCc2nc(C3CSC3)nn2-c2cccnc2)c(Cl)c1

>  <enamine_id>  (206) 
PV-007096376307

$$$$

     RDKit          3D

 26 29  0  0  0  0  0  0  0  0999 V2000
    7.2122    2.4121   22.9046 C   0  0  0  0  0  0  0  0  0  0  0  0
    8.6244    2.1818   22.6428 N   0  0  0  0  0  0  0  0  0  0  0  0
    9.0673    1.9960   21.2679 C   0  0  0  0  0  0  0  0  0  0  0  0
    9.5669    0.5724   20.9213 C   0  0  0  0  0  0  0  0  0  0  0  0
    8.6559   -0.5003   21.4056 C   0  0  0  0  0  0  0  0  0  0  0  0
    8.8950   -1.3585   22.3746 N   0  0  0  0  0  0  0  0  0  0  0  0
    7.6823   -1.9389   22.5743 C   0  0  0  0  0  0  0  0  0  0  0  0
    7.4231   -2.8410   23.7449 C   0  0  0  0  0  0  0  0  0  0  0  0
    6.6639   -2.1322   24.9088 C   0  0  0  0  0  0  0  0  0  0  0  0
    5.8663   -3.2411   25.6394 C   0  0  0  0  0  0  0  0  0  0  0  0
    5.9317   -4.5059   24.7430 C   0  0  0  0  0  0  0  0  0  0  0  0
    6.5483   -4.0649   23.4052 C   0  0  0  0  0  0  0  0  0  0  0  0
    6.7340   -1.5452   21.7402 N   0  0  0  0  0  0  0  0  0  0  0  0
    7.3738   -0.6356   20.9624 N   0  0  0  0  0  0  0  0  0  0  0  0
    6.6775    0.0190   19.9101 C   0  0  0  0  0  0  0  0  0  0  0  0
    5.4554    0.6504   20.1670 C   0  0  0  0  0  0  0  0  0  0  0  0
    4.8136    1.3104   19.1130 C   0  0  0  0  0  0  0  0  0  0  0  0
    5.4035    1.2946   17.8429 C   0  0  0  0  0  0  0  0  0  0  0  0
    6.5576    0.6628   17.5801 N   0  0  0  0  0  0  0  0  0  0  0  0
    7.1740    0.0460   18.5952 C   0  0  0  0  0  0  0  0  0  0  0  0
    9.4540    1.8195   23.6846 C   0  0  0  0  0  0  0  0  0  0  0  0
    8.9662    1.1252   24.8067 C   0  0  0  0  0  0  0  0  0  0  0  0
    9.8695    0.7735   25.8012 C   0  0  0  0  0  0  0  0  0  0  0  0
   11.1743    1.0500   25.7346 N   0  0  0  0  0  0  0  0  0  0  0  0
   11.6291    1.7310   24.6777 C   0  0  0  0  0  0  0  0  0  0  0  0
   10.8202    2.1321   23.6260 C   0  0  0  0  0  0  0  0  0  0  0  0
  1  2  1  0
  2  3  1  0
  3  4  1  0
  4  5  1  0
  5  6  2  0
  6  7  1  0
  7  8  1  0
  8  9  1  0
  9 10  1  0
 10 11  1  0
 11 12  1  0
  7 13  2  0
 13 14  1  0
 14 15  1  0
 15 16  2  0
 16 17  1  0
 17 18  2  0
 18 19  1  0
 19 20  2  0
  2 21  1  0
 21 22  2  0
 22 23  1  0
 23 24  2  0
 24 25  1  0
 25 26  2  0
 14  5  1  0
 20 15  1  0
 26 21  1  0
 12  8  1  0
M  END
>  <cnnaffinity>  (207) 
-6.29864

>  <filename>  (207) 
CN(CCc1nc(C2CCCC2)nn1-c1cccnc1)c1ccncc1

>  <enamine_id>  (207) 
PV-006852548359

$$$$

     RDKit          3D

 24 26  0  0  0  0  0  0  0  0999 V2000
    6.1638   -1.2032   25.1177 C   0  0  0  0  0  0  0  0  0  0  0  0
    7.2949   -2.2295   25.0464 C   0  0  0  0  0  0  0  0  0  0  0  0
    7.3997   -2.9664   23.6904 C   0  0  1  0  0  0  0  0  0  0  0  0
    6.2781   -3.8183   23.5088 O   0  0  0  0  0  0  0  0  0  0  0  0
    7.6467   -2.0002   22.5404 C   0  0  0  0  0  0  0  0  0  0  0  0
    6.6888   -1.5740   21.7330 N   0  0  0  0  0  0  0  0  0  0  0  0
    7.3310   -0.6841   20.9370 N   0  0  0  0  0  0  0  0  0  0  0  0
    6.6424   -0.0039   19.8966 C   0  0  0  0  0  0  0  0  0  0  0  0
    5.4339    0.6422   20.1644 C   0  0  0  0  0  0  0  0  0  0  0  0
    4.8116    1.3129   19.1087 C   0  0  0  0  0  0  0  0  0  0  0  0
    5.3983    1.2978   17.8370 C   0  0  0  0  0  0  0  0  0  0  0  0
    6.5545    0.6705   17.5729 N   0  0  0  0  0  0  0  0  0  0  0  0
    7.1604    0.0440   18.5881 C   0  0  0  0  0  0  0  0  0  0  0  0
    8.6174   -0.5610   21.3720 C   0  0  0  0  0  0  0  0  0  0  0  0
    9.6255    0.3651   20.7958 C   0  0  0  0  0  0  0  0  0  0  0  0
   10.3665    1.1360   21.8714 C   0  0  0  0  0  0  0  0  0  0  0  0
   11.5708    0.6577   22.4161 C   0  0  0  0  0  0  0  0  0  0  0  0
   12.2887   -0.8190   21.8256 Cl  0  0  0  0  0  0  0  0  0  0  0  0
   12.2145    1.3063   23.4728 C   0  0  0  0  0  0  0  0  0  0  0  0
   11.6306    2.4518   24.0022 C   0  0  0  0  0  0  0  0  0  0  0  0
   10.4202    2.9311   23.5015 C   0  0  0  0  0  0  0  0  0  0  0  0
    9.7665    2.2762   22.4565 C   0  0  0  0  0  0  0  0  0  0  0  0
    8.4409    2.8125   21.9749 C   0  0  0  0  0  0  0  0  0  0  0  0
    8.8588   -1.4243   22.3415 N   0  0  0  0  0  0  0  0  0  0  0  0
  1  2  1  0
  2  3  1  0
  3  4  1  6
  3  5  1  0
  5  6  2  0
  6  7  1  0
  7  8  1  0
  8  9  2  0
  9 10  1  0
 10 11  2  0
 11 12  1  0
 12 13  2  0
  7 14  1  0
 14 15  1  0
 15 16  1  0
 16 17  2  0
 17 18  1  0
 17 19  1  0
 19 20  2  0
 20 21  1  0
 21 22  2  0
 22 23  1  0
 14 24  2  0
 24  5  1  0
 13  8  1  0
 22 16  1  0
M  END
>  <cnnaffinity>  (208) 
-6.29827

>  <filename>  (208) 
CCC(O)c1nc(Cc2c(C)cccc2Cl)n(-c2cccnc2)n1

>  <enamine_id>  (208) 
PV-006880979749

$$$$

     RDKit          3D

 25 27  0  0  0  0  0  0  0  0999 V2000
    8.6349    2.7246   22.1235 C   0  0  0  0  0  0  0  0  0  0  0  0
    9.9920    2.1282   22.4401 C   0  0  0  0  0  0  0  0  0  0  0  0
   10.7611    2.6994   23.4588 C   0  0  0  0  0  0  0  0  0  0  0  0
   11.9953    2.1617   23.8092 C   0  0  0  0  0  0  0  0  0  0  0  0
   12.4831    1.0290   23.1642 C   0  0  0  0  0  0  0  0  0  0  0  0
   11.7197    0.3910   22.1801 C   0  0  0  0  0  0  0  0  0  0  0  0
   12.1820   -0.9537   21.6562 C   0  0  0  0  0  0  0  0  0  0  0  0
   10.5000    0.9889   21.7716 C   0  0  0  0  0  0  0  0  0  0  0  0
    9.6338    0.3069   20.7340 C   0  0  0  0  0  0  0  0  0  0  0  0
    8.6116   -0.5796   21.3555 C   0  0  0  0  0  0  0  0  0  0  0  0
    8.8384   -1.4255   22.3361 N   0  0  0  0  0  0  0  0  0  0  0  0
    7.6198   -1.9812   22.5515 C   0  0  0  0  0  0  0  0  0  0  0  0
    7.3879   -2.9557   23.6609 C   0  0  0  0  0  0  0  0  0  0  0  0
    7.0640   -2.2813   24.8706 O   0  0  0  0  0  0  0  0  0  0  0  0
    6.9959   -3.0954   26.0340 C   0  0  0  0  0  0  0  0  0  0  0  0
    5.8555   -2.5505   26.8790 C   0  0  0  0  0  0  0  0  0  0  0  0
    8.3344   -3.0685   26.7657 C   0  0  0  0  0  0  0  0  0  0  0  0
    6.6735   -1.5856   21.7233 N   0  0  0  0  0  0  0  0  0  0  0  0
    7.3157   -0.6920   20.9343 N   0  0  0  0  0  0  0  0  0  0  0  0
    6.6346   -0.0126   19.8889 C   0  0  0  0  0  0  0  0  0  0  0  0
    5.4246    0.6370   20.1512 C   0  0  0  0  0  0  0  0  0  0  0  0
    4.8021    1.3129   19.0996 C   0  0  0  0  0  0  0  0  0  0  0  0
    5.3945    1.2983   17.8310 C   0  0  0  0  0  0  0  0  0  0  0  0
    6.5459    0.6624   17.5672 N   0  0  0  0  0  0  0  0  0  0  0  0
    7.1503    0.0311   18.5798 C   0  0  0  0  0  0  0  0  0  0  0  0
  1  2  1  0
  2  3  2  0
  3  4  1  0
  4  5  2  0
  5  6  1  0
  6  7  1  0
  6  8  2  0
  8  9  1  0
  9 10  1  0
 10 11  2  0
 11 12  1  0
 12 13  1  0
 13 14  1  0
 14 15  1  0
 15 16  1  0
 15 17  1  0
 12 18  2  0
 18 19  1  0
 19 20  1  0
 20 21  2  0
 21 22  1  0
 22 23  2  0
 23 24  1  0
 24 25  2  0
  8  2  1  0
 19 10  1  0
 25 20  1  0
M  END
>  <cnnaffinity>  (209) 
-6.2979

>  <filename>  (209) 
Cc1cccc(C)c1Cc1nc(COC(C)C)nn1-c1cccnc1

>  <enamine_id>  (209) 
PV-006978584869

$$$$

     RDKit          3D

 27 30  0  0  0  0  0  0  0  0999 V2000
    9.2711    4.2388   25.5228 C   0  0  0  0  0  0  0  0  0  0  0  0
    9.6404    3.3227   24.3759 C   0  0  0  0  0  0  0  0  0  0  0  0
    8.6968    3.0093   23.3947 C   0  0  0  0  0  0  0  0  0  0  0  0
    8.9961    2.1203   22.3601 C   0  0  0  0  0  0  0  0  0  0  0  0
   10.2404    1.4829   22.3249 C   0  0  0  0  0  0  0  0  0  0  0  0
   10.5649    0.5214   21.3997 O   0  0  0  0  0  0  0  0  0  0  0  0
    9.5467   -0.0116   20.5752 C   0  0  0  0  0  0  0  0  0  0  0  0
    8.4873   -0.8009   21.3028 C   0  0  0  0  0  0  0  0  0  0  0  0
    8.6829   -1.5659   22.3524 N   0  0  0  0  0  0  0  0  0  0  0  0
    7.4523   -2.0959   22.5943 C   0  0  0  0  0  0  0  0  0  0  0  0
    7.2372   -2.9777   23.7980 C   0  0  0  0  0  0  0  0  0  0  0  0
    7.3428   -2.1557   25.1246 C   0  0  0  0  0  0  0  0  0  0  0  0
    7.6327   -3.0330   26.3726 C   0  0  0  0  0  0  0  0  0  0  0  0
    7.3637   -4.4019   26.1600 O   0  0  0  0  0  0  0  0  0  0  0  0
    8.0682   -5.0206   25.0952 C   0  0  0  0  0  0  0  0  0  0  0  0
    8.2807   -4.1178   23.8619 C   0  0  0  0  0  0  0  0  0  0  0  0
    6.5195   -1.7206   21.7432 N   0  0  0  0  0  0  0  0  0  0  0  0
    7.1899   -0.8987   20.8905 N   0  0  0  0  0  0  0  0  0  0  0  0
    6.5132   -0.2044   19.8438 C   0  0  0  0  0  0  0  0  0  0  0  0
    5.3526    0.5349   20.1036 C   0  0  0  0  0  0  0  0  0  0  0  0
    4.8182    1.3040   19.0633 C   0  0  0  0  0  0  0  0  0  0  0  0
    5.4386    1.2887   17.8079 C   0  0  0  0  0  0  0  0  0  0  0  0
    6.5092    0.5302   17.5352 N   0  0  0  0  0  0  0  0  0  0  0  0
    7.0181   -0.2070   18.5294 C   0  0  0  0  0  0  0  0  0  0  0  0
   11.2379    1.7991   23.2714 C   0  0  0  0  0  0  0  0  0  0  0  0
   12.5846    1.1120   23.2403 C   0  0  0  0  0  0  0  0  0  0  0  0
   10.9179    2.7390   24.2520 C   0  0  0  0  0  0  0  0  0  0  0  0
  1  2  1  0
  2  3  2  0
  3  4  1  0
  4  5  2  0
  5  6  1  0
  6  7  1  0
  7  8  1  0
  8  9  2  0
  9 10  1  0
 10 11  1  0
 11 12  1  0
 12 13  1  0
 13 14  1  0
 14 15  1  0
 15 16  1  0
 10 17  2  0
 17 18  1  0
 18 19  1  0
 19 20  2  0
 20 21  1  0
 21 22  2  0
 22 23  1  0
 23 24  2  0
  5 25  1  0
 25 26  1  0
 25 27  2  0
 27  2  1  0
 18  8  1  0
 24 19  1  0
 16 11  1  0
M  END
>  <cnnaffinity>  (210) 
-6.29405

>  <filename>  (210) 
Cc1ccc(OCc2nc(C3CCOCC3)nn2-c2cccnc2)c(C)c1

>  <enamine_id>  (210) 
PV-006755587279

$$$$

     RDKit          3D

 27 30  0  0  0  0  0  0  0  0999 V2000
   13.4016    3.2693   23.5304 F   0  0  0  0  0  0  0  0  0  0  0  0
   12.2963    2.5673   23.8359 C   0  0  0  0  0  0  0  0  0  0  0  0
   12.3867    1.5236   24.7496 C   0  0  0  0  0  0  0  0  0  0  0  0
   11.2248    0.8511   25.1434 C   0  0  0  0  0  0  0  0  0  0  0  0
   10.0235    1.1595   24.5050 C   0  0  0  0  0  0  0  0  0  0  0  0
    8.9255    0.4571   24.8460 F   0  0  0  0  0  0  0  0  0  0  0  0
    9.9266    2.1427   23.5125 C   0  0  0  0  0  0  0  0  0  0  0  0
    8.6945    2.3171   22.6455 C   0  0  0  0  0  0  0  0  0  0  0  0
    9.0131    1.9944   21.1688 C   0  0  0  0  0  0  0  0  0  0  0  0
    9.5417    0.5668   20.9084 C   0  0  0  0  0  0  0  0  0  0  0  0
    8.6446   -0.5087   21.4126 C   0  0  0  0  0  0  0  0  0  0  0  0
    8.8878   -1.3820   22.3683 N   0  0  0  0  0  0  0  0  0  0  0  0
    7.6848   -1.9820   22.5366 C   0  0  0  0  0  0  0  0  0  0  0  0
    7.4514   -2.9700   23.6266 C   0  0  2  0  0  0  0  0  0  0  0  0
    6.7895   -4.2949   23.1910 C   0  0  0  0  0  0  0  0  0  0  0  0
    6.0303   -4.7420   24.4442 C   0  0  0  0  0  0  0  0  0  0  0  0
    5.8619   -3.5923   25.2570 O   0  0  0  0  0  0  0  0  0  0  0  0
    6.4754   -2.4499   24.7003 C   0  0  0  0  0  0  0  0  0  0  0  0
    6.7306   -1.5758   21.7179 N   0  0  0  0  0  0  0  0  0  0  0  0
    7.3650   -0.6448   20.9596 N   0  0  0  0  0  0  0  0  0  0  0  0
    6.6712    0.0112   19.9004 C   0  0  0  0  0  0  0  0  0  0  0  0
    5.4493    0.6389   20.1617 C   0  0  0  0  0  0  0  0  0  0  0  0
    4.8177    1.3057   19.1092 C   0  0  0  0  0  0  0  0  0  0  0  0
    5.4103    1.2938   17.8415 C   0  0  0  0  0  0  0  0  0  0  0  0
    6.5593    0.6551   17.5723 N   0  0  0  0  0  0  0  0  0  0  0  0
    7.1726    0.0306   18.5853 C   0  0  0  0  0  0  0  0  0  0  0  0
   11.0852    2.8900   23.2339 C   0  0  0  0  0  0  0  0  0  0  0  0
  1  2  1  0
  2  3  2  0
  3  4  1  0
  4  5  2  0
  5  6  1  0
  5  7  1  0
  7  8  1  0
  8  9  1  0
  9 10  1  0
 10 11  1  0
 11 12  2  0
 12 13  1  0
 14 13  1  6
 14 15  1  0
 15 16  1  0
 16 17  1  0
 17 18  1  0
 13 19  2  0
 19 20  1  0
 20 21  1  0
 21 22  2  0
 22 23  1  0
 23 24  2  0
 24 25  1  0
 25 26  2  0
  7 27  2  0
 27  2  1  0
 20 11  1  0
 26 21  1  0
 18 14  1  0
M  END
>  <cnnaffinity>  (211) 
-6.29288

>  <filename>  (211) 
Fc1ccc(F)c(CCCc2nc(C3CCOC3)nn2-c2cccnc2)c1

>  <enamine_id>  (211) 
PV-007002666254

$$$$

     RDKit          3D

 28 31  0  0  0  0  0  0  0  0999 V2000
   10.7575    4.3389   22.8894 O   0  0  0  0  0  0  0  0  0  0  0  0
   11.1052    3.2330   23.2859 C   0  0  0  0  0  0  0  0  0  0  0  0
   12.4945    2.8906   23.5718 C   0  0  0  0  0  0  0  0  0  0  0  0
   12.8573    1.6989   24.1295 C   0  0  0  0  0  0  0  0  0  0  0  0
   11.8365    0.7528   24.4655 C   0  0  0  0  0  0  0  0  0  0  0  0
   10.5379    1.0116   24.1385 C   0  0  0  0  0  0  0  0  0  0  0  0
   10.1710    2.1779   23.4951 N   0  0  0  0  0  0  0  0  0  0  0  0
    8.8744    2.2705   22.8035 C   0  0  0  0  0  0  0  0  0  0  0  0
    9.0157    2.0071   21.2953 C   0  0  0  0  0  0  0  0  0  0  0  0
    9.5182    0.5947   20.9263 C   0  0  0  0  0  0  0  0  0  0  0  0
    8.6355   -0.5043   21.4164 C   0  0  0  0  0  0  0  0  0  0  0  0
    8.8623   -1.3578   22.3920 N   0  0  0  0  0  0  0  0  0  0  0  0
    7.6683   -2.0050   22.5405 C   0  0  0  0  0  0  0  0  0  0  0  0
    7.4518   -3.0379   23.5871 C   0  0  0  0  0  0  0  0  0  0  0  0
    8.4760   -3.3431   24.5061 C   0  0  0  0  0  0  0  0  0  0  0  0
    8.2473   -4.3033   25.4855 C   0  0  0  0  0  0  0  0  0  0  0  0
    9.2237   -4.5757   26.3654 F   0  0  0  0  0  0  0  0  0  0  0  0
    7.0386   -4.9870   25.5852 C   0  0  0  0  0  0  0  0  0  0  0  0
    6.0223   -4.6831   24.6738 C   0  0  0  0  0  0  0  0  0  0  0  0
    6.2161   -3.7152   23.6858 C   0  0  0  0  0  0  0  0  0  0  0  0
    6.7303   -1.6055   21.6980 N   0  0  0  0  0  0  0  0  0  0  0  0
    7.3625   -0.6676   20.9530 N   0  0  0  0  0  0  0  0  0  0  0  0
    6.6718   -0.0096   19.8979 C   0  0  0  0  0  0  0  0  0  0  0  0
    5.4539    0.6220   20.1577 C   0  0  0  0  0  0  0  0  0  0  0  0
    4.8293    1.3006   19.1088 C   0  0  0  0  0  0  0  0  0  0  0  0
    5.4214    1.3002   17.8405 C   0  0  0  0  0  0  0  0  0  0  0  0
    6.5667    0.6556   17.5750 N   0  0  0  0  0  0  0  0  0  0  0  0
    7.1707    0.0167   18.5834 C   0  0  0  0  0  0  0  0  0  0  0  0
  1  2  2  0
  2  3  1  0
  3  4  2  0
  4  5  1  0
  5  6  2  0
  6  7  1  0
  7  8  1  0
  8  9  1  0
  9 10  1  0
 10 11  1  0
 11 12  2  0
 12 13  1  0
 13 14  1  0
 14 15  2  0
 15 16  1  0
 16 17  1  0
 16 18  2  0
 18 19  1  0
 19 20  2  0
 13 21  2  0
 21 22  1  0
 22 23  1  0
 23 24  2  0
 24 25  1  0
 25 26  2  0
 26 27  1  0
 27 28  2  0
  7  2  1  0
 22 11  1  0
 28 23  1  0
 20 14  1  0
M  END
>  <cnnaffinity>  (212) 
-6.29065

>  <filename>  (212) 
O=c1ccccn1CCCc1nc(-c2cccc(F)c2)nn1-c1cccnc1

>  <enamine_id>  (212) 
PV-006786275254

$$$$

     RDKit          3D

 22 24  0  0  0  0  0  0  0  0999 V2000
    7.7234   -4.5164   22.9277 C   0  0  0  0  0  0  0  0  0  0  0  0
    7.4217   -3.1210   23.5185 C   0  0  0  0  0  0  0  0  0  0  0  0
    7.6016   -2.0315   22.5217 C   0  0  0  0  0  0  0  0  0  0  0  0
    6.6531   -1.6172   21.7069 N   0  0  0  0  0  0  0  0  0  0  0  0
    7.2954   -0.6969   20.9441 N   0  0  0  0  0  0  0  0  0  0  0  0
    6.6279   -0.0194   19.8889 C   0  0  0  0  0  0  0  0  0  0  0  0
    5.4221    0.6339   20.1519 C   0  0  0  0  0  0  0  0  0  0  0  0
    4.8007    1.3161   19.1022 C   0  0  0  0  0  0  0  0  0  0  0  0
    5.3926    1.2970   17.8341 C   0  0  0  0  0  0  0  0  0  0  0  0
    6.5423    0.6566   17.5731 N   0  0  0  0  0  0  0  0  0  0  0  0
    7.1469    0.0244   18.5838 C   0  0  0  0  0  0  0  0  0  0  0  0
    8.5798   -0.5775   21.3798 C   0  0  0  0  0  0  0  0  0  0  0  0
    9.6314    0.3016   20.8033 C   0  0  0  0  0  0  0  0  0  0  0  0
   10.3310    1.1271   21.8640 C   0  0  0  0  0  0  0  0  0  0  0  0
    9.7254    2.2385   22.4765 C   0  0  0  0  0  0  0  0  0  0  0  0
    8.1511    2.7705   21.9641 Cl  0  0  0  0  0  0  0  0  0  0  0  0
   10.3562    2.8963   23.5460 C   0  0  0  0  0  0  0  0  0  0  0  0
   11.5423    2.4980   24.0295 N   0  0  0  0  0  0  0  0  0  0  0  0
   12.1465    1.4486   23.4554 C   0  0  0  0  0  0  0  0  0  0  0  0
   11.5738    0.7548   22.3838 C   0  0  0  0  0  0  0  0  0  0  0  0
   12.2286   -0.3011   21.8703 F   0  0  0  0  0  0  0  0  0  0  0  0
    8.8028   -1.4280   22.3584 N   0  0  0  0  0  0  0  0  0  0  0  0
  1  2  1  0
  2  3  1  0
  3  4  2  0
  4  5  1  0
  5  6  1  0
  6  7  2  0
  7  8  1  0
  8  9  2  0
  9 10  1  0
 10 11  2  0
  5 12  1  0
 12 13  1  0
 13 14  1  0
 14 15  2  0
 15 16  1  0
 15 17  1  0
 17 18  2  0
 18 19  1  0
 19 20  2  0
 20 21  1  0
 12 22  2  0
 22  3  1  0
 11  6  1  0
 20 14  1  0
M  END
>  <cnnaffinity>  (213) 
-6.28803

>  <filename>  (213) 
CCc1nc(Cc2c(F)cncc2Cl)n(-c2cccnc2)n1

>  <enamine_id>  (213) 
PV-006864562041

$$$$

     RDKit          3D

 26 29  0  0  0  0  0  0  0  0999 V2000
    5.7152   -4.2437   27.9047 F   0  0  0  0  0  0  0  0  0  0  0  0
    5.6546   -4.0278   26.5818 C   0  0  0  0  0  0  0  0  0  0  0  0
    5.7132   -2.7286   26.0940 C   0  0  0  0  0  0  0  0  0  0  0  0
    5.6407   -2.5143   24.7094 C   0  0  0  0  0  0  0  0  0  0  0  0
    5.4743   -3.5868   23.8112 C   0  0  0  0  0  0  0  0  0  0  0  0
    5.2733   -3.4847   22.4707 O   0  0  0  0  0  0  0  0  0  0  0  0
    5.7455   -2.4863   21.5728 C   0  0  0  0  0  0  0  0  0  0  0  0
    7.0665   -1.7854   21.7873 C   0  0  0  0  0  0  0  0  0  0  0  0
    8.0886   -2.0927   22.5650 N   0  0  0  0  0  0  0  0  0  0  0  0
    9.0430   -1.1986   22.2100 C   0  0  0  0  0  0  0  0  0  0  0  0
   10.3987   -1.2024   22.8463 C   0  0  2  0  0  0  0  0  0  0  0  0
   11.0098    0.1390   23.3285 C   0  0  0  0  0  0  0  0  0  0  0  0
   12.5236   -0.0333   23.0794 C   0  0  0  0  0  0  0  0  0  0  0  0
   12.7021   -1.2436   22.3650 O   0  0  0  0  0  0  0  0  0  0  0  0
   11.4714   -1.7350   21.8909 C   0  0  0  0  0  0  0  0  0  0  0  0
    8.7058   -0.3985   21.2182 N   0  0  0  0  0  0  0  0  0  0  0  0
    7.4093   -0.7303   20.9828 N   0  0  0  0  0  0  0  0  0  0  0  0
    6.6894   -0.0234   19.9735 C   0  0  0  0  0  0  0  0  0  0  0  0
    5.4623    0.6216   20.2065 C   0  0  0  0  0  0  0  0  0  0  0  0
    4.8441    1.2660   19.1250 C   0  0  0  0  0  0  0  0  0  0  0  0
    5.4682    1.2495   17.8755 C   0  0  0  0  0  0  0  0  0  0  0  0
    6.6561    0.6576   17.6552 N   0  0  0  0  0  0  0  0  0  0  0  0
    7.2597    0.0682   18.6909 C   0  0  0  0  0  0  0  0  0  0  0  0
    5.4462   -4.8943   24.3547 C   0  0  0  0  0  0  0  0  0  0  0  0
    5.2972   -6.2663   23.3064 Cl  0  0  0  0  0  0  0  0  0  0  0  0
    5.5381   -5.1216   25.7284 C   0  0  0  0  0  0  0  0  0  0  0  0
  1  2  1  0
  2  3  2  0
  3  4  1  0
  4  5  2  0
  5  6  1  0
  6  7  1  0
  7  8  1  0
  8  9  2  0
  9 10  1  0
 11 10  1  6
 11 12  1  0
 12 13  1  0
 13 14  1  0
 14 15  1  0
 10 16  2  0
 16 17  1  0
 17 18  1  0
 18 19  2  0
 19 20  1  0
 20 21  2  0
 21 22  1  0
 22 23  2  0
  5 24  1  0
 24 25  1  0
 24 26  2  0
 26  2  1  0
 17  8  1  0
 23 18  1  0
 15 11  1  0
M  END
>  <cnnaffinity>  (214) 
-6.28775

>  <filename>  (214) 
Fc1ccc(OCc2nc(C3CCOC3)nn2-c2cccnc2)c(Cl)c1

>  <enamine_id>  (214) 
PV-007069630014

$$$$

     RDKit          3D

 25 28  0  0  0  0  0  0  0  0999 V2000
    5.6513   -4.5645   25.2800 C   0  0  0  0  0  0  0  0  0  0  0  0
    6.0906   -3.3934   25.7444 C   0  0  0  0  0  0  0  0  0  0  0  0
    6.5375   -2.3324   24.7648 C   0  0  0  0  0  0  0  0  0  0  0  0
    7.4369   -2.9554   23.6520 C   0  0  2  0  0  0  0  0  0  0  0  0
    7.6825   -1.9621   22.5585 C   0  0  0  0  0  0  0  0  0  0  0  0
    6.7481   -1.5994   21.6993 N   0  0  0  0  0  0  0  0  0  0  0  0
    7.3754   -0.6594   20.9435 N   0  0  0  0  0  0  0  0  0  0  0  0
    6.6639    0.0091   19.9039 C   0  0  0  0  0  0  0  0  0  0  0  0
    5.4420    0.6407   20.1697 C   0  0  0  0  0  0  0  0  0  0  0  0
    4.8136    1.3082   19.1110 C   0  0  0  0  0  0  0  0  0  0  0  0
    5.4023    1.2953   17.8382 C   0  0  0  0  0  0  0  0  0  0  0  0
    6.5626    0.6747   17.5759 N   0  0  0  0  0  0  0  0  0  0  0  0
    7.1705    0.0566   18.5943 C   0  0  0  0  0  0  0  0  0  0  0  0
    8.6434   -0.4879   21.4167 C   0  0  0  0  0  0  0  0  0  0  0  0
    9.5455    0.5914   20.9274 C   0  0  0  0  0  0  0  0  0  0  0  0
    9.0620    2.0065   21.2917 C   0  0  0  0  0  0  0  0  0  0  0  0
    8.8932    2.2220   22.8009 C   0  0  0  0  0  0  0  0  0  0  0  0
   10.1152    1.9997   23.5594 N   0  0  0  0  0  0  0  0  0  0  0  0
   10.3933    0.9563   24.4214 C   0  0  0  0  0  0  0  0  0  0  0  0
   11.6794    1.1520   24.8368 C   0  0  0  0  0  0  0  0  0  0  0  0
   12.2044    2.2790   24.2546 N   0  0  0  0  0  0  0  0  0  0  0  0
   11.2501    2.7508   23.4940 C   0  0  0  0  0  0  0  0  0  0  0  0
    8.8674   -1.3153   22.4234 N   0  0  0  0  0  0  0  0  0  0  0  0
    6.9143   -4.3257   23.1079 C   0  0  0  0  0  0  0  0  0  0  0  0
    5.6087   -4.8000   23.7830 C   0  0  0  0  0  0  0  0  0  0  0  0
  1  2  2  0
  2  3  1  0
  3  4  1  0
  4  5  1  6
  5  6  2  0
  6  7  1  0
  7  8  1  0
  8  9  2  0
  9 10  1  0
 10 11  2  0
 11 12  1  0
 12 13  2  0
  7 14  1  0
 14 15  1  0
 15 16  1  0
 16 17  1  0
 17 18  1  0
 18 19  1  0
 19 20  2  0
 20 21  1  0
 21 22  2  0
 14 23  2  0
  4 24  1  0
 24 25  1  0
 25  1  1  0
 23  5  1  0
 13  8  1  0
 22 18  1  0
M  END
>  <cnnaffinity>  (215) 
-6.28578

>  <filename>  (215) 
C1=CCC(c2nc(CCCn3ccnc3)n(-c3cccnc3)n2)CC1

>  <enamine_id>  (215) 
PV-007072455324

$$$$

     RDKit          3D

 24 27  0  0  0  0  0  0  0  0999 V2000
   12.9773    2.3403   23.7091 C   0  0  0  0  0  0  0  0  0  0  0  0
   12.3511    1.1196   23.9681 C   0  0  0  0  0  0  0  0  0  0  0  0
   10.9567    1.0764   23.8888 C   0  0  0  0  0  0  0  0  0  0  0  0
   10.2599    2.2509   23.5686 C   0  0  0  0  0  0  0  0  0  0  0  0
    8.5493    2.1888   23.0589 S   0  0  0  0  0  0  0  0  0  0  0  0
    8.9023    2.0047   21.2755 C   0  0  0  0  0  0  0  0  0  0  0  0
    9.4955    0.6280   20.9196 C   0  0  0  0  0  0  0  0  0  0  0  0
    8.6456   -0.5060   21.4002 C   0  0  0  0  0  0  0  0  0  0  0  0
    8.8798   -1.3669   22.3726 N   0  0  0  0  0  0  0  0  0  0  0  0
    7.6797   -1.9930   22.5274 C   0  0  0  0  0  0  0  0  0  0  0  0
    7.4492   -3.0125   23.5914 C   0  0  0  0  0  0  0  0  0  0  0  0
    6.2588   -2.7481   24.5741 C   0  0  0  0  0  0  0  0  0  0  0  0
    5.5501   -4.0231   24.0579 C   0  0  0  0  0  0  0  0  0  0  0  0
    6.7658   -4.3495   23.1565 C   0  0  0  0  0  0  0  0  0  0  0  0
    6.7395   -1.5968   21.6929 N   0  0  0  0  0  0  0  0  0  0  0  0
    7.3743   -0.6649   20.9385 N   0  0  0  0  0  0  0  0  0  0  0  0
    6.6821   -0.0058   19.8901 C   0  0  0  0  0  0  0  0  0  0  0  0
    5.4663    0.6276   20.1574 C   0  0  0  0  0  0  0  0  0  0  0  0
    4.8385    1.3037   19.1077 C   0  0  0  0  0  0  0  0  0  0  0  0
    5.4276    1.3062   17.8362 C   0  0  0  0  0  0  0  0  0  0  0  0
    6.5735    0.6630   17.5658 N   0  0  0  0  0  0  0  0  0  0  0  0
    7.1755    0.0218   18.5745 C   0  0  0  0  0  0  0  0  0  0  0  0
   10.8533    3.4393   23.4387 N   0  0  0  0  0  0  0  0  0  0  0  0
   12.1870    3.4678   23.4864 C   0  0  0  0  0  0  0  0  0  0  0  0
  1  2  2  0
  2  3  1  0
  3  4  2  0
  4  5  1  0
  5  6  1  0
  6  7  1  0
  7  8  1  0
  8  9  2  0
  9 10  1  0
 10 11  1  0
 11 12  1  0
 12 13  1  0
 13 14  1  0
 10 15  2  0
 15 16  1  0
 16 17  1  0
 17 18  2  0
 18 19  1  0
 19 20  2  0
 20 21  1  0
 21 22  2  0
  4 23  1  0
 23 24  2  0
 24  1  1  0
 16  8  1  0
 22 17  1  0
 14 11  1  0
M  END
>  <cnnaffinity>  (216) 
-6.28404

>  <filename>  (216) 
c1ccc(SCCc2nc(C3CCC3)nn2-c2cccnc2)nc1

>  <enamine_id>  (216) 
PV-006808630020

$$$$

     RDKit          3D

 26 29  0  0  0  0  0  0  0  0999 V2000
    8.7401    1.7062   20.7155 O   0  0  0  0  0  0  0  0  0  0  0  0
    8.5624    1.2249   22.0335 C   0  0  1  0  0  0  0  0  0  0  0  0
    7.7154    2.2268   22.8456 C   0  0  0  0  0  0  0  0  0  0  0  0
    8.4053    3.5580   22.8761 C   0  0  0  0  0  0  0  0  0  0  0  0
    9.5354    3.7573   23.6859 C   0  0  0  0  0  0  0  0  0  0  0  0
   10.1154    5.0247   23.7395 C   0  0  0  0  0  0  0  0  0  0  0  0
    9.5387    6.0394   22.9750 C   0  0  0  0  0  0  0  0  0  0  0  0
    8.4633    5.7232   22.1374 C   0  0  0  0  0  0  0  0  0  0  0  0
    7.9272    4.4957   22.0535 N   0  0  0  0  0  0  0  0  0  0  0  0
    8.0064   -0.1777   22.0704 C   0  0  0  0  0  0  0  0  0  0  0  0
    8.1803   -1.0483   23.0502 N   0  0  0  0  0  0  0  0  0  0  0  0
    7.5051   -2.1418   22.6115 C   0  0  0  0  0  0  0  0  0  0  0  0
    7.4823   -3.4329   23.3828 C   0  0  0  0  0  0  0  0  0  0  0  0
    6.7355   -3.3451   24.7545 C   0  0  0  0  0  0  0  0  0  0  0  0
    7.1963   -4.4333   25.7561 C   0  0  0  0  0  0  0  0  0  0  0  0
    7.6386   -5.7089   25.0281 C   0  0  0  0  0  0  0  0  0  0  0  0
    8.8442   -5.4573   24.0910 C   0  0  0  0  0  0  0  0  0  0  0  0
    8.9061   -4.0027   23.5817 C   0  0  0  0  0  0  0  0  0  0  0  0
    6.9168   -1.9911   21.4410 N   0  0  0  0  0  0  0  0  0  0  0  0
    7.2299   -0.7165   21.0965 N   0  0  0  0  0  0  0  0  0  0  0  0
    6.6279   -0.0594   19.9740 C   0  0  0  0  0  0  0  0  0  0  0  0
    5.4055    0.5997   20.1338 C   0  0  0  0  0  0  0  0  0  0  0  0
    4.8755    1.2837   19.0361 C   0  0  0  0  0  0  0  0  0  0  0  0
    5.5834    1.2760   17.8290 C   0  0  0  0  0  0  0  0  0  0  0  0
    6.7564    0.6435   17.6688 N   0  0  0  0  0  0  0  0  0  0  0  0
    7.2697   -0.0058   18.7241 C   0  0  0  0  0  0  0  0  0  0  0  0
  2  1  1  6
  2  3  1  0
  3  4  1  0
  4  5  2  0
  5  6  1  0
  6  7  2  0
  7  8  1  0
  8  9  2  0
  2 10  1  0
 10 11  2  0
 11 12  1  0
 12 13  1  0
 13 14  1  0
 14 15  1  0
 15 16  1  0
 16 17  1  0
 17 18  1  0
 12 19  2  0
 19 20  1  0
 20 21  1  0
 21 22  2  0
 22 23  1  0
 23 24  2  0
 24 25  1  0
 25 26  2  0
  9  4  1  0
 20 10  1  0
 26 21  1  0
 18 13  1  0
M  END
>  <cnnaffinity>  (217) 
-6.28397

>  <filename>  (217) 
OC(Cc1ccccn1)c1nc(C2CCCCC2)nn1-c1cccnc1

>  <enamine_id>  (217) 
PV-006724155675

$$$$

     RDKit          3D

 23 26  0  0  0  0  0  0  0  0999 V2000
   11.5293    2.0806   21.5307 C   0  0  0  0  0  0  0  0  0  0  0  0
   10.0682    2.1412   21.7875 C   0  0  0  0  0  0  0  0  0  0  0  0
    9.4771    1.5353   22.7634 N   0  0  0  0  0  0  0  0  0  0  0  0
    8.1309    1.7915   22.5752 C   0  0  0  0  0  0  0  0  0  0  0  0
    7.1188    0.9831   23.3276 C   0  0  0  0  0  0  0  0  0  0  0  0
    7.1469   -0.4030   22.7547 C   0  0  0  0  0  0  0  0  0  0  0  0
    7.6484   -1.4297   23.3981 N   0  0  0  0  0  0  0  0  0  0  0  0
    7.8420   -2.3518   22.4217 C   0  0  0  0  0  0  0  0  0  0  0  0
    8.5347   -3.6603   22.6439 C   0  0  0  0  0  0  0  0  0  0  0  0
    7.8376   -4.8637   21.9673 C   0  0  0  0  0  0  0  0  0  0  0  0
    8.2210   -6.0854   22.8210 C   0  0  0  0  0  0  0  0  0  0  0  0
    8.6533   -5.5573   24.2152 C   0  0  0  0  0  0  0  0  0  0  0  0
    8.7499   -4.0207   24.1270 C   0  0  0  0  0  0  0  0  0  0  0  0
    7.4697   -1.9684   21.2160 N   0  0  0  0  0  0  0  0  0  0  0  0
    6.9903   -0.7152   21.4285 N   0  0  0  0  0  0  0  0  0  0  0  0
    6.4929    0.0177   20.3172 C   0  0  0  0  0  0  0  0  0  0  0  0
    5.3490    0.8197   20.4070 C   0  0  0  0  0  0  0  0  0  0  0  0
    4.8994    1.4518   19.2437 C   0  0  0  0  0  0  0  0  0  0  0  0
    5.6082    1.2758   18.0505 C   0  0  0  0  0  0  0  0  0  0  0  0
    6.7314    0.5433   17.9664 N   0  0  0  0  0  0  0  0  0  0  0  0
    7.1593   -0.0705   19.0747 C   0  0  0  0  0  0  0  0  0  0  0  0
    7.9859    2.5784   21.4962 C   0  0  0  0  0  0  0  0  0  0  0  0
    9.2264    2.7851   20.9566 O   0  0  0  0  0  0  0  0  0  0  0  0
  1  2  1  0
  2  3  2  0
  3  4  1  0
  4  5  1  0
  5  6  1  0
  6  7  2  0
  7  8  1  0
  8  9  1  0
  9 10  1  0
 10 11  1  0
 11 12  1  0
 12 13  1  0
  8 14  2  0
 14 15  1  0
 15 16  1  0
 16 17  2  0
 17 18  1  0
 18 19  2  0
 19 20  1  0
 20 21  2  0
  4 22  2  0
 22 23  1  0
 23  2  1  0
 15  6  1  0
 21 16  1  0
 13  9  1  0
M  END
>  <cnnaffinity>  (218) 
-6.28158

>  <filename>  (218) 
Cc1nc(Cc2nc(C3CCCC3)nn2-c2cccnc2)co1

>  <enamine_id>  (218) 
PV-006897631268

$$$$

     RDKit          3D

 26 29  0  0  0  0  0  0  0  0999 V2000
    4.8141    1.3093   19.1042 C   0  0  0  0  0  0  0  0  0  0  0  0
    5.4095    1.2985   17.8346 C   0  0  0  0  0  0  0  0  0  0  0  0
    6.5590    0.6608   17.5651 N   0  0  0  0  0  0  0  0  0  0  0  0
    7.1736    0.0351   18.5757 C   0  0  0  0  0  0  0  0  0  0  0  0
    6.6704    0.0092   19.8913 C   0  0  0  0  0  0  0  0  0  0  0  0
    7.3591   -0.6469   20.9461 N   0  0  0  0  0  0  0  0  0  0  0  0
    6.7170   -1.5696   21.7121 N   0  0  0  0  0  0  0  0  0  0  0  0
    7.6560   -1.9590   22.5521 C   0  0  0  0  0  0  0  0  0  0  0  0
    7.4245   -2.9286   23.6863 C   0  0  0  0  0  0  0  0  0  0  0  0
    6.7399   -2.2009   24.8956 C   0  0  0  0  0  0  0  0  0  0  0  0
    5.9300   -3.1742   25.7505 C   0  0  0  0  0  0  0  0  0  0  0  0
    4.9131   -3.8334   25.0014 O   0  0  0  0  0  0  0  0  0  0  0  0
    5.1266   -4.0085   23.6062 C   0  0  0  0  0  0  0  0  0  0  0  0
    6.6056   -4.1857   23.2622 C   0  0  0  0  0  0  0  0  0  0  0  0
    8.8577   -1.3473   22.3939 N   0  0  0  0  0  0  0  0  0  0  0  0
    8.6338   -0.4990   21.4075 C   0  0  0  0  0  0  0  0  0  0  0  0
    9.5371    0.5731   20.9023 C   0  0  0  0  0  0  0  0  0  0  0  0
    9.0152    1.9956   21.1894 C   0  0  0  0  0  0  0  0  0  0  0  0
    8.7192    2.2635   22.6807 C   0  0  0  0  0  0  0  0  0  0  0  0
    9.9531    2.0900   23.5343 C   0  0  0  0  0  0  0  0  0  0  0  0
   11.0526    2.9374   23.3420 C   0  0  0  0  0  0  0  0  0  0  0  0
   12.2501    2.6612   24.0003 C   0  0  0  0  0  0  0  0  0  0  0  0
   12.4045    1.6519   24.8640 N   0  0  0  0  0  0  0  0  0  0  0  0
   11.3386    0.8743   25.0906 C   0  0  0  0  0  0  0  0  0  0  0  0
   10.1139    1.0387   24.4405 C   0  0  0  0  0  0  0  0  0  0  0  0
    5.4493    0.6408   20.1523 C   0  0  0  0  0  0  0  0  0  0  0  0
  1  2  2  0
  2  3  1  0
  3  4  2  0
  4  5  1  0
  5  6  1  0
  6  7  1  0
  7  8  2  0
  8  9  1  0
  9 10  1  0
 10 11  1  0
 11 12  1  0
 12 13  1  0
 13 14  1  0
  8 15  1  0
 15 16  2  0
 16 17  1  0
 17 18  1  0
 18 19  1  0
 19 20  1  0
 20 21  2  0
 21 22  1  0
 22 23  2  0
 23 24  1  0
 24 25  2  0
  5 26  2  0
 26  1  1  0
 16  6  1  0
 25 20  1  0
 14  9  1  0
M  END
>  <cnnaffinity>  (219) 
-6.27764

>  <filename>  (219) 
c1cncc(-n2nc(C3CCOCC3)nc2CCCc2ccncc2)c1

>  <enamine_id>  (219) 
PV-006717791617

$$$$

     RDKit          3D

 24 27  0  0  0  0  0  0  0  0999 V2000
    4.8594    1.3770   18.9502 C   0  0  0  0  0  0  0  0  0  0  0  0
    5.5021    1.2727   17.7146 C   0  0  0  0  0  0  0  0  0  0  0  0
    6.6144    0.5385   17.5289 N   0  0  0  0  0  0  0  0  0  0  0  0
    7.1342   -0.0958   18.5879 C   0  0  0  0  0  0  0  0  0  0  0  0
    6.5925    0.0051   19.8824 C   0  0  0  0  0  0  0  0  0  0  0  0
    7.2406   -0.6334   20.9817 N   0  0  0  0  0  0  0  0  0  0  0  0
    7.5793   -1.9458   20.8820 N   0  0  0  0  0  0  0  0  0  0  0  0
    8.0306   -2.2271   22.0928 C   0  0  0  0  0  0  0  0  0  0  0  0
    8.5707   -3.5815   22.4795 C   0  0  0  0  0  0  0  0  0  0  0  0
    8.6387   -3.8572   24.0008 C   0  0  0  0  0  0  0  0  0  0  0  0
    8.5759   -5.3925   24.1731 C   0  0  0  0  0  0  0  0  0  0  0  0
    8.2079   -5.9899   22.7921 C   0  0  0  0  0  0  0  0  0  0  0  0
    7.8204   -4.8012   21.8939 C   0  0  0  0  0  0  0  0  0  0  0  0
    8.0544   -1.1704   22.9463 N   0  0  0  0  0  0  0  0  0  0  0  0
    7.5713   -0.1780   22.2286 C   0  0  0  0  0  0  0  0  0  0  0  0
    7.4273    1.2314   22.7067 C   0  0  0  0  0  0  0  0  0  0  0  0
    8.2733    2.2670   21.9406 C   0  0  0  0  0  0  0  0  0  0  0  0
    7.9910    3.7438   22.2961 C   0  0  0  0  0  0  0  0  0  0  0  0
    8.5363    4.2428   23.6152 C   0  0  0  0  0  0  0  0  0  0  0  0
    9.7546    4.7791   23.9209 C   0  0  0  0  0  0  0  0  0  0  0  0
    9.9463    5.2041   25.2205 N   0  0  0  0  0  0  0  0  0  0  0  0
    8.8768    4.9915   25.9179 C   0  0  0  0  0  0  0  0  0  0  0  0
    7.5779    4.2477   25.0538 S   0  0  0  0  0  0  0  0  0  0  0  0
    5.4066    0.7235   20.0578 C   0  0  0  0  0  0  0  0  0  0  0  0
  1  2  2  0
  2  3  1  0
  3  4  2  0
  4  5  1  0
  5  6  1  0
  6  7  1  0
  7  8  2  0
  8  9  1  0
  9 10  1  0
 10 11  1  0
 11 12  1  0
 12 13  1  0
  8 14  1  0
 14 15  2  0
 15 16  1  0
 16 17  1  0
 17 18  1  0
 18 19  1  0
 19 20  2  0
 20 21  1  0
 21 22  2  0
 22 23  1  0
  5 24  2  0
 24  1  1  0
 15  6  1  0
 23 19  1  0
 13  9  1  0
M  END
>  <cnnaffinity>  (220) 
-6.27735

>  <filename>  (220) 
c1cncc(-n2nc(C3CCCC3)nc2CCCc2cncs2)c1

>  <enamine_id>  (220) 
PV-006938760564

$$$$

     RDKit          3D

 26 29  0  0  0  0  0  0  0  0999 V2000
    5.6353    3.7655   23.0331 F   0  0  0  0  0  0  0  0  0  0  0  0
    6.7562    4.4744   22.7863 C   0  0  0  0  0  0  0  0  0  0  0  0
    6.6886    5.4889   21.8330 C   0  0  0  0  0  0  0  0  0  0  0  0
    7.8438    6.2327   21.5733 C   0  0  0  0  0  0  0  0  0  0  0  0
    9.0462    5.9241   22.2121 C   0  0  0  0  0  0  0  0  0  0  0  0
    9.0570    4.8742   23.1256 C   0  0  0  0  0  0  0  0  0  0  0  0
   10.2298    4.5350   23.6982 F   0  0  0  0  0  0  0  0  0  0  0  0
    7.9202    4.1428   23.4876 C   0  0  0  0  0  0  0  0  0  0  0  0
    7.9890    3.0012   24.4791 C   0  0  0  0  0  0  0  0  0  0  0  0
    8.3291    1.6776   23.7867 C   0  0  0  0  0  0  0  0  0  0  0  0
    7.2166    1.2370   22.8096 C   0  0  0  0  0  0  0  0  0  0  0  0
    7.4209   -0.1345   22.2792 C   0  0  0  0  0  0  0  0  0  0  0  0
    7.9400   -1.1061   23.0050 N   0  0  0  0  0  0  0  0  0  0  0  0
    8.1827   -2.0743   22.0981 C   0  0  0  0  0  0  0  0  0  0  0  0
    8.9810   -3.2762   22.4396 C   0  0  0  0  0  0  0  0  0  0  0  0
   10.3525   -2.9257   23.1024 C   0  0  0  0  0  0  0  0  0  0  0  0
   10.0756   -4.1385   24.4378 S   0  0  0  0  0  0  0  0  0  0  0  0
    8.4636   -4.1829   23.5883 C   0  0  0  0  0  0  0  0  0  0  0  0
    7.8032   -1.7998   20.8678 N   0  0  0  0  0  0  0  0  0  0  0  0
    7.2522   -0.5622   20.9893 N   0  0  0  0  0  0  0  0  0  0  0  0
    6.5847    0.0455   19.8940 C   0  0  0  0  0  0  0  0  0  0  0  0
    5.3735    0.7213   20.0866 C   0  0  0  0  0  0  0  0  0  0  0  0
    4.7951    1.3637   18.9906 C   0  0  0  0  0  0  0  0  0  0  0  0
    5.4401    1.3014   17.7536 C   0  0  0  0  0  0  0  0  0  0  0  0
    6.5780    0.6125   17.5514 N   0  0  0  0  0  0  0  0  0  0  0  0
    7.1242   -0.0188   18.5951 C   0  0  0  0  0  0  0  0  0  0  0  0
  1  2  1  0
  2  3  2  0
  3  4  1  0
  4  5  2  0
  5  6  1  0
  6  7  1  0
  6  8  2  0
  8  9  1  0
  9 10  1  0
 10 11  1  0
 11 12  1  0
 12 13  2  0
 13 14  1  0
 14 15  1  0
 15 16  1  0
 16 17  1  0
 17 18  1  0
 14 19  2  0
 19 20  1  0
 20 21  1  0
 21 22  2  0
 22 23  1  0
 23 24  2  0
 24 25  1  0
 25 26  2  0
  8  2  1  0
 20 12  1  0
 26 21  1  0
 18 15  1  0
M  END
>  <cnnaffinity>  (221) 
-6.27688

>  <filename>  (221) 
Fc1cccc(F)c1CCCc1nc(C2CSC2)nn1-c1cccnc1

>  <enamine_id>  (221) 
PV-007059949603

$$$$

     RDKit          3D

 24 27  0  0  0  0  0  0  0  0999 V2000
   12.6804    1.4079   24.5787 C   0  0  0  0  0  0  0  0  0  0  0  0
   11.6339    0.5558   24.9533 C   0  0  0  0  0  0  0  0  0  0  0  0
   10.3651    0.8429   24.4442 C   0  0  0  0  0  0  0  0  0  0  0  0
   10.1770    1.9604   23.6182 C   0  0  0  0  0  0  0  0  0  0  0  0
    8.8720    2.1953   22.8935 C   0  0  0  0  0  0  0  0  0  0  0  0
    9.0084    2.0268   21.3621 C   0  0  0  0  0  0  0  0  0  0  0  0
    9.5029    0.6286   20.9439 C   0  0  0  0  0  0  0  0  0  0  0  0
    8.6237   -0.4760   21.4142 C   0  0  0  0  0  0  0  0  0  0  0  0
    8.8703   -1.3164   22.3987 N   0  0  0  0  0  0  0  0  0  0  0  0
    7.6848   -1.9678   22.5554 C   0  0  0  0  0  0  0  0  0  0  0  0
    7.4286   -2.9259   23.6694 C   0  0  0  0  0  0  0  0  0  0  0  0
    8.6345   -3.7903   24.1352 C   0  0  0  0  0  0  0  0  0  0  0  0
    8.6012   -3.1050   25.5198 C   0  0  0  0  0  0  0  0  0  0  0  0
    7.3572   -2.2909   25.0998 C   0  0  0  0  0  0  0  0  0  0  0  0
    6.7445   -1.6113   21.7055 N   0  0  0  0  0  0  0  0  0  0  0  0
    7.3566   -0.6647   20.9434 N   0  0  0  0  0  0  0  0  0  0  0  0
    6.6584   -0.0040   19.8894 C   0  0  0  0  0  0  0  0  0  0  0  0
    5.4391    0.6350   20.1459 C   0  0  0  0  0  0  0  0  0  0  0  0
    4.8107    1.3116   19.0962 C   0  0  0  0  0  0  0  0  0  0  0  0
    5.4066    1.3026   17.8300 C   0  0  0  0  0  0  0  0  0  0  0  0
    6.5575    0.6649   17.5668 N   0  0  0  0  0  0  0  0  0  0  0  0
    7.1653    0.0318   18.5775 C   0  0  0  0  0  0  0  0  0  0  0  0
   11.1580    2.8444   23.3775 N   0  0  0  0  0  0  0  0  0  0  0  0
   12.3794    2.5592   23.8405 C   0  0  0  0  0  0  0  0  0  0  0  0
  1  2  2  0
  2  3  1  0
  3  4  2  0
  4  5  1  0
  5  6  1  0
  6  7  1  0
  7  8  1  0
  8  9  2  0
  9 10  1  0
 10 11  1  0
 11 12  1  0
 12 13  1  0
 13 14  1  0
 10 15  2  0
 15 16  1  0
 16 17  1  0
 17 18  2  0
 18 19  1  0
 19 20  2  0
 20 21  1  0
 21 22  2  0
  4 23  1  0
 23 24  2  0
 24  1  1  0
 16  8  1  0
 22 17  1  0
 14 11  1  0
M  END
>  <cnnaffinity>  (222) 
-6.27563

>  <filename>  (222) 
c1ccc(CCCc2nc(C3CCC3)nn2-c2cccnc2)nc1

>  <enamine_id>  (222) 
PV-006751470317

$$$$

     RDKit          3D

 24 26  0  0  0  0  0  0  0  0999 V2000
    7.2318   -5.1122   22.5228 C   0  0  0  0  0  0  0  0  0  0  0  0
    6.5756   -4.1282   23.2999 O   0  0  0  0  0  0  0  0  0  0  0  0
    7.3811   -3.0146   23.6361 C   0  0  2  0  0  0  0  0  0  0  0  0
    6.7501   -2.3221   24.8482 C   0  0  0  0  0  0  0  0  0  0  0  0
    7.5845   -2.0444   22.4934 C   0  0  0  0  0  0  0  0  0  0  0  0
    6.6455   -1.6199   21.6722 N   0  0  0  0  0  0  0  0  0  0  0  0
    7.3000   -0.6934   20.9259 N   0  0  0  0  0  0  0  0  0  0  0  0
    6.6343   -0.0094   19.8778 C   0  0  0  0  0  0  0  0  0  0  0  0
    5.4239    0.6348   20.1425 C   0  0  0  0  0  0  0  0  0  0  0  0
    4.7962    1.3177   19.0965 C   0  0  0  0  0  0  0  0  0  0  0  0
    5.3882    1.3015   17.8262 C   0  0  0  0  0  0  0  0  0  0  0  0
    6.5343    0.6582   17.5594 N   0  0  0  0  0  0  0  0  0  0  0  0
    7.1443    0.0292   18.5672 C   0  0  0  0  0  0  0  0  0  0  0  0
    8.5833   -0.5818   21.3736 C   0  0  0  0  0  0  0  0  0  0  0  0
    9.6450    0.3029   20.8115 C   0  0  0  0  0  0  0  0  0  0  0  0
   10.3279    1.1457   21.8696 C   0  0  0  0  0  0  0  0  0  0  0  0
    9.7071    2.2543   22.4754 C   0  0  0  0  0  0  0  0  0  0  0  0
    8.1308    2.7666   21.9485 Cl  0  0  0  0  0  0  0  0  0  0  0  0
   10.3179    2.9187   23.5517 C   0  0  0  0  0  0  0  0  0  0  0  0
   11.5028    2.5306   24.0505 N   0  0  0  0  0  0  0  0  0  0  0  0
   12.1243    1.4856   23.4830 C   0  0  0  0  0  0  0  0  0  0  0  0
   11.5707    0.7893   22.4051 C   0  0  0  0  0  0  0  0  0  0  0  0
   12.2421   -0.2605   21.8990 F   0  0  0  0  0  0  0  0  0  0  0  0
    8.7901   -1.4398   22.3505 N   0  0  0  0  0  0  0  0  0  0  0  0
  1  2  1  0
  2  3  1  0
  3  4  1  1
  3  5  1  0
  5  6  2  0
  6  7  1  0
  7  8  1  0
  8  9  2  0
  9 10  1  0
 10 11  2  0
 11 12  1  0
 12 13  2  0
  7 14  1  0
 14 15  1  0
 15 16  1  0
 16 17  2  0
 17 18  1  0
 17 19  1  0
 19 20  2  0
 20 21  1  0
 21 22  2  0
 22 23  1  0
 14 24  2  0
 24  5  1  0
 13  8  1  0
 22 16  1  0
M  END
>  <cnnaffinity>  (223) 
-6.27459

>  <filename>  (223) 
COC(C)c1nc(Cc2c(F)cncc2Cl)n(-c2cccnc2)n1

>  <enamine_id>  (223) 
PV-006824635676

$$$$

     RDKit          3D

 27 30  0  0  0  0  0  0  0  0999 V2000
    6.4027   -5.2079   25.4670 F   0  0  0  0  0  0  0  0  0  0  0  0
    7.4331   -4.4992   26.0399 C   0  0  0  0  0  0  0  0  0  0  0  0
    7.6597   -5.0916   27.2532 F   0  0  0  0  0  0  0  0  0  0  0  0
    6.9917   -3.0443   26.2436 C   0  0  0  0  0  0  0  0  0  0  0  0
    7.3768   -2.1204   25.0689 C   0  0  0  0  0  0  0  0  0  0  0  0
    7.4115   -2.8817   23.7238 C   0  0  0  0  0  0  0  0  0  0  0  0
    7.6533   -1.9435   22.5807 C   0  0  0  0  0  0  0  0  0  0  0  0
    6.7249   -1.5942   21.7181 N   0  0  0  0  0  0  0  0  0  0  0  0
    7.3558   -0.6770   20.9351 N   0  0  0  0  0  0  0  0  0  0  0  0
    6.6546    0.0014   19.8983 C   0  0  0  0  0  0  0  0  0  0  0  0
    5.4387    0.6434   20.1647 C   0  0  0  0  0  0  0  0  0  0  0  0
    4.8118    1.3107   19.1087 C   0  0  0  0  0  0  0  0  0  0  0  0
    5.4005    1.2956   17.8376 C   0  0  0  0  0  0  0  0  0  0  0  0
    6.5603    0.6731   17.5763 N   0  0  0  0  0  0  0  0  0  0  0  0
    7.1680    0.0501   18.5915 C   0  0  0  0  0  0  0  0  0  0  0  0
    8.6260   -0.5046   21.4027 C   0  0  0  0  0  0  0  0  0  0  0  0
    9.5058    0.6305   20.9752 C   0  0  0  0  0  0  0  0  0  0  0  0
    9.0446    2.0046   21.5513 C   0  0  0  0  0  0  0  0  0  0  0  0
    8.9716    2.0016   23.0590 C   0  0  0  0  0  0  0  0  0  0  0  0
   10.1404    2.1031   23.8033 C   0  0  0  0  0  0  0  0  0  0  0  0
   10.0079    1.9952   25.1743 C   0  0  0  0  0  0  0  0  0  0  0  0
    8.8316    1.8200   25.7730 N   0  0  0  0  0  0  0  0  0  0  0  0
    7.7864    1.6852   24.9600 C   0  0  0  0  0  0  0  0  0  0  0  0
    7.7846    1.7736   23.6350 N   0  0  0  0  0  0  0  0  0  0  0  0
    8.8527   -1.3211   22.4117 N   0  0  0  0  0  0  0  0  0  0  0  0
    8.4525   -4.0387   23.7489 C   0  0  0  0  0  0  0  0  0  0  0  0
    8.6652   -4.6397   25.1584 C   0  0  0  0  0  0  0  0  0  0  0  0
  1  2  1  0
  2  3  1  0
  2  4  1  0
  4  5  1  0
  5  6  1  0
  6  7  1  0
  7  8  2  0
  8  9  1  0
  9 10  1  0
 10 11  2  0
 11 12  1  0
 12 13  2  0
 13 14  1  0
 14 15  2  0
  9 16  1  0
 16 17  1  0
 17 18  1  0
 18 19  1  0
 19 20  2  0
 20 21  1  0
 21 22  2  0
 22 23  1  0
 23 24  2  0
 16 25  2  0
  6 26  1  0
 26 27  1  0
 27  2  1  0
 25  7  1  0
 15 10  1  0
 24 19  1  0
M  END
>  <cnnaffinity>  (224) 
-6.27255

>  <filename>  (224) 
FC1(F)CCC(c2nc(CCc3ccncn3)n(-c3cccnc3)n2)CC1

>  <enamine_id>  (224) 
PV-007131206395

$$$$

     RDKit          3D

 24 27  0  0  0  0  0  0  0  0999 V2000
    4.8230    1.3026   19.1081 C   0  0  0  0  0  0  0  0  0  0  0  0
    5.4131    1.2959   17.8398 C   0  0  0  0  0  0  0  0  0  0  0  0
    6.5637    0.6600   17.5658 N   0  0  0  0  0  0  0  0  0  0  0  0
    7.1815    0.0363   18.5776 C   0  0  0  0  0  0  0  0  0  0  0  0
    6.6843    0.0136   19.8918 C   0  0  0  0  0  0  0  0  0  0  0  0
    7.3743   -0.6425   20.9460 N   0  0  0  0  0  0  0  0  0  0  0  0
    6.7353   -1.5870   21.6838 N   0  0  0  0  0  0  0  0  0  0  0  0
    7.6613   -1.9635   22.5445 C   0  0  0  0  0  0  0  0  0  0  0  0
    7.4335   -2.9665   23.6217 C   0  0  0  0  0  0  0  0  0  0  0  0
    6.7038   -4.2806   23.2123 C   0  0  0  0  0  0  0  0  0  0  0  0
    5.5215   -3.9148   24.1378 C   0  0  0  0  0  0  0  0  0  0  0  0
    6.2726   -2.6544   24.6200 C   0  0  0  0  0  0  0  0  0  0  0  0
    8.8537   -1.3215   22.4213 N   0  0  0  0  0  0  0  0  0  0  0  0
    8.6388   -0.4722   21.4337 C   0  0  0  0  0  0  0  0  0  0  0  0
    9.5313    0.6120   20.9368 C   0  0  0  0  0  0  0  0  0  0  0  0
    9.0153    2.0252   21.2630 C   0  0  0  0  0  0  0  0  0  0  0  0
    8.8182    2.2690   22.7753 C   0  0  0  0  0  0  0  0  0  0  0  0
   10.1074    2.0894   23.5327 C   0  0  0  0  0  0  0  0  0  0  0  0
   10.3656    0.9529   24.3321 C   0  0  0  0  0  0  0  0  0  0  0  0
   11.5816    0.6701   24.8432 N   0  0  0  0  0  0  0  0  0  0  0  0
   12.5364    1.5681   24.5617 C   0  0  0  0  0  0  0  0  0  0  0  0
   12.2715    2.7507   23.8430 C   0  0  0  0  0  0  0  0  0  0  0  0
   11.0638    3.0204   23.3266 N   0  0  0  0  0  0  0  0  0  0  0  0
    5.4586    0.6345   20.1575 C   0  0  0  0  0  0  0  0  0  0  0  0
  1  2  2  0
  2  3  1  0
  3  4  2  0
  4  5  1  0
  5  6  1  0
  6  7  1  0
  7  8  2  0
  8  9  1  0
  9 10  1  0
 10 11  1  0
 11 12  1  0
  8 13  1  0
 13 14  2  0
 14 15  1  0
 15 16  1  0
 16 17  1  0
 17 18  1  0
 18 19  2  0
 19 20  1  0
 20 21  2  0
 21 22  1  0
 22 23  2  0
  5 24  2  0
 24  1  1  0
 14  6  1  0
 23 18  1  0
 12  9  1  0
M  END
>  <cnnaffinity>  (225) 
-6.27202

>  <filename>  (225) 
c1cncc(-n2nc(C3CCC3)nc2CCCc2cnccn2)c1

>  <enamine_id>  (225) 
PV-006875064766

$$$$

     RDKit          3D

 23 26  0  0  0  0  0  0  0  0999 V2000
    8.7031    2.7038   22.0891 C   0  0  0  0  0  0  0  0  0  0  0  0
   10.0454    2.0846   22.4157 C   0  0  0  0  0  0  0  0  0  0  0  0
   10.8325    2.6528   23.4233 C   0  0  0  0  0  0  0  0  0  0  0  0
   12.0480    2.0731   23.7782 C   0  0  0  0  0  0  0  0  0  0  0  0
   12.5048    0.9228   23.1438 C   0  0  0  0  0  0  0  0  0  0  0  0
   11.7096    0.2945   22.1772 C   0  0  0  0  0  0  0  0  0  0  0  0
   12.1439   -1.0286   21.6028 C   0  0  0  0  0  0  0  0  0  0  0  0
   10.5024    0.9101   21.7792 C   0  0  0  0  0  0  0  0  0  0  0  0
    9.6196    0.2259   20.7576 C   0  0  0  0  0  0  0  0  0  0  0  0
    8.5569   -0.6075   21.3912 C   0  0  0  0  0  0  0  0  0  0  0  0
    8.7349   -1.4300   22.4011 N   0  0  0  0  0  0  0  0  0  0  0  0
    7.5216   -2.0194   22.5403 C   0  0  0  0  0  0  0  0  0  0  0  0
    7.3397   -3.0548   23.5659 C   0  0  0  0  0  0  0  0  0  0  0  0
    6.5276   -4.3066   23.3153 C   0  0  0  0  0  0  0  0  0  0  0  0
    6.0236   -3.2732   24.2709 C   0  0  0  0  0  0  0  0  0  0  0  0
    6.6043   -1.6139   21.6812 N   0  0  0  0  0  0  0  0  0  0  0  0
    7.2818   -0.7231   20.9205 N   0  0  0  0  0  0  0  0  0  0  0  0
    6.6186   -0.0350   19.8713 C   0  0  0  0  0  0  0  0  0  0  0  0
    5.4140    0.6209   20.1358 C   0  0  0  0  0  0  0  0  0  0  0  0
    4.8014    1.3117   19.0904 C   0  0  0  0  0  0  0  0  0  0  0  0
    5.3983    1.3026   17.8233 C   0  0  0  0  0  0  0  0  0  0  0  0
    6.5368    0.6456   17.5546 N   0  0  0  0  0  0  0  0  0  0  0  0
    7.1311   -0.0041   18.5620 C   0  0  0  0  0  0  0  0  0  0  0  0
  1  2  1  0
  2  3  2  0
  3  4  1  0
  4  5  2  0
  5  6  1  0
  6  7  1  0
  6  8  2  0
  8  9  1  0
  9 10  1  0
 10 11  2  0
 11 12  1  0
 12 13  1  0
 13 14  1  0
 14 15  1  0
 12 16  2  0
 16 17  1  0
 17 18  1  0
 18 19  2  0
 19 20  1  0
 20 21  2  0
 21 22  1  0
 22 23  2  0
  8  2  1  0
 17 10  1  0
 23 18  1  0
 15 13  1  0
M  END
>  <cnnaffinity>  (226) 
-6.26909

>  <filename>  (226) 
Cc1cccc(C)c1Cc1nc(C2CC2)nn1-c1cccnc1

>  <enamine_id>  (226) 
PV-007116264239

$$$$

     RDKit          3D

 26 29  0  0  0  0  0  0  0  0999 V2000
    8.5074    2.8293   25.6544 C   0  0  0  0  0  0  0  0  0  0  0  0
    9.5884    1.8587   25.1499 C   0  0  0  0  0  0  0  0  0  0  0  0
    9.2529    0.3931   25.4738 C   0  0  0  0  0  0  0  0  0  0  0  0
    9.9605    2.1138   23.6856 C   0  0  0  0  0  0  0  0  0  0  0  0
   11.2338    2.6638   23.4293 C   0  0  0  0  0  0  0  0  0  0  0  0
   11.6973    2.8751   22.1326 C   0  0  0  0  0  0  0  0  0  0  0  0
   10.8780    2.5462   21.0558 C   0  0  0  0  0  0  0  0  0  0  0  0
    9.5878    2.0684   21.2914 C   0  0  0  0  0  0  0  0  0  0  0  0
    9.1105    1.8444   22.5939 C   0  0  0  0  0  0  0  0  0  0  0  0
    7.6949    1.2533   22.6648 C   0  0  0  0  0  0  0  0  0  0  0  0
    7.6553   -0.1620   22.1665 C   0  0  0  0  0  0  0  0  0  0  0  0
    8.1741   -1.1576   22.8501 N   0  0  0  0  0  0  0  0  0  0  0  0
    8.1373   -2.2026   21.9926 C   0  0  0  0  0  0  0  0  0  0  0  0
    8.7929   -3.4911   22.3620 C   0  0  1  0  0  0  0  0  0  0  0  0
    8.8612   -3.8360   23.8702 C   0  0  0  0  0  0  0  0  0  0  0  0
    8.7525   -5.3741   23.8879 C   0  0  0  0  0  0  0  0  0  0  0  0
    8.7287   -5.8072   22.5367 O   0  0  0  0  0  0  0  0  0  0  0  0
    8.1581   -4.7626   21.7758 C   0  0  0  0  0  0  0  0  0  0  0  0
    7.6304   -1.9268   20.8059 N   0  0  0  0  0  0  0  0  0  0  0  0
    7.2710   -0.6168   20.9358 N   0  0  0  0  0  0  0  0  0  0  0  0
    6.5934    0.0425   19.8790 C   0  0  0  0  0  0  0  0  0  0  0  0
    5.3874    0.7154   20.1078 C   0  0  0  0  0  0  0  0  0  0  0  0
    4.7837    1.3611   19.0225 C   0  0  0  0  0  0  0  0  0  0  0  0
    5.4097    1.3185   17.7742 C   0  0  0  0  0  0  0  0  0  0  0  0
    6.5545    0.6509   17.5454 N   0  0  0  0  0  0  0  0  0  0  0  0
    7.1207    0.0116   18.5759 C   0  0  0  0  0  0  0  0  0  0  0  0
  1  2  1  0
  2  3  1  0
  2  4  1  0
  4  5  2  0
  5  6  1  0
  6  7  2  0
  7  8  1  0
  8  9  2  0
  9 10  1  0
 10 11  1  0
 11 12  2  0
 12 13  1  0
 14 13  1  1
 14 15  1  0
 15 16  1  0
 16 17  1  0
 17 18  1  0
 13 19  2  0
 19 20  1  0
 20 21  1  0
 21 22  2  0
 22 23  1  0
 23 24  2  0
 24 25  1  0
 25 26  2  0
  9  4  1  0
 20 11  1  0
 26 21  1  0
 18 14  1  0
M  END
>  <cnnaffinity>  (227) 
-6.26891

>  <filename>  (227) 
CC(C)c1ccccc1Cc1nc(C2CCOC2)nn1-c1cccnc1

>  <enamine_id>  (227) 
PV-006756215955

$$$$

     RDKit          3D

 26 29  0  0  0  0  0  0  0  0999 V2000
    7.0878    5.0510   24.8225 F   0  0  0  0  0  0  0  0  0  0  0  0
    7.6129    4.1905   23.9342 C   0  0  0  0  0  0  0  0  0  0  0  0
    8.2125    3.0065   24.3601 C   0  0  0  0  0  0  0  0  0  0  0  0
    8.7390    2.1510   23.3784 C   0  0  0  0  0  0  0  0  0  0  0  0
    8.6511    2.5406   22.0318 C   0  0  0  0  0  0  0  0  0  0  0  0
    9.1629    1.8386   20.9923 O   0  0  0  0  0  0  0  0  0  0  0  0
    9.5652    0.4703   21.0189 C   0  0  0  0  0  0  0  0  0  0  0  0
    8.5846   -0.5388   21.5140 C   0  0  0  0  0  0  0  0  0  0  0  0
    8.7989   -1.3775   22.5031 N   0  0  0  0  0  0  0  0  0  0  0  0
    7.5926   -1.9931   22.6454 C   0  0  0  0  0  0  0  0  0  0  0  0
    7.3679   -2.9509   23.7708 C   0  0  1  0  0  0  0  0  0  0  0  0
    8.2942   -4.1914   23.6486 C   0  0  0  0  0  0  0  0  0  0  0  0
    8.3171   -5.0270   24.9037 C   0  0  0  0  0  0  0  0  0  0  0  0
    7.8571   -4.5977   26.0827 C   0  0  0  0  0  0  0  0  0  0  0  0
    7.3078   -3.2096   26.3069 C   0  0  0  0  0  0  0  0  0  0  0  0
    7.6080   -2.2608   25.1387 C   0  0  0  0  0  0  0  0  0  0  0  0
    6.6801   -1.6229   21.7717 N   0  0  0  0  0  0  0  0  0  0  0  0
    7.3290   -0.6985   21.0142 N   0  0  0  0  0  0  0  0  0  0  0  0
    6.6589   -0.0327   19.9428 C   0  0  0  0  0  0  0  0  0  0  0  0
    5.4454    0.6226   20.1772 C   0  0  0  0  0  0  0  0  0  0  0  0
    4.8473    1.3141   19.1206 C   0  0  0  0  0  0  0  0  0  0  0  0
    5.4610    1.2953   17.8617 C   0  0  0  0  0  0  0  0  0  0  0  0
    6.5952    0.6235   17.6140 N   0  0  0  0  0  0  0  0  0  0  0  0
    7.1733   -0.0242   18.6338 C   0  0  0  0  0  0  0  0  0  0  0  0
    8.0769    3.6674   21.6459 N   0  0  0  0  0  0  0  0  0  0  0  0
    7.5625    4.4778   22.5712 C   0  0  0  0  0  0  0  0  0  0  0  0
  1  2  1  0
  2  3  2  0
  3  4  1  0
  4  5  2  0
  5  6  1  0
  6  7  1  0
  7  8  1  0
  8  9  2  0
  9 10  1  0
 11 10  1  6
 11 12  1  0
 12 13  1  0
 13 14  2  0
 14 15  1  0
 15 16  1  0
 10 17  2  0
 17 18  1  0
 18 19  1  0
 19 20  2  0
 20 21  1  0
 21 22  2  0
 22 23  1  0
 23 24  2  0
  5 25  1  0
 25 26  2  0
 26  2  1  0
 18  8  1  0
 24 19  1  0
 16 11  1  0
M  END
>  <cnnaffinity>  (228) 
-6.26881

>  <filename>  (228) 
Fc1ccc(OCc2nc(C3CC=CCC3)nn2-c2cccnc2)nc1

>  <enamine_id>  (228) 
PV-007044358371

$$$$

     RDKit          3D

 26 29  0  0  0  0  0  0  0  0999 V2000
    7.9779   -5.3390   27.3155 C   0  0  0  0  0  0  0  0  0  0  0  0
    8.2224   -4.3358   26.1920 C   0  0  1  0  0  0  0  0  0  0  0  0
    8.3113   -5.0304   24.8236 C   0  0  0  0  0  0  0  0  0  0  0  0
    8.5380   -4.0378   23.6806 C   0  0  0  0  0  0  0  0  0  0  0  0
    7.4538   -2.9381   23.6679 C   0  0  2  0  0  0  0  0  0  0  0  0
    7.6701   -1.9483   22.5645 C   0  0  0  0  0  0  0  0  0  0  0  0
    6.7431   -1.6072   21.6970 N   0  0  0  0  0  0  0  0  0  0  0  0
    7.3633   -0.6654   20.9383 N   0  0  0  0  0  0  0  0  0  0  0  0
    6.6602    0.0098   19.9009 C   0  0  0  0  0  0  0  0  0  0  0  0
    5.4415    0.6462   20.1665 C   0  0  0  0  0  0  0  0  0  0  0  0
    4.8117    1.3110   19.1097 C   0  0  0  0  0  0  0  0  0  0  0  0
    5.4022    1.2951   17.8386 C   0  0  0  0  0  0  0  0  0  0  0  0
    6.5637    0.6759   17.5779 N   0  0  0  0  0  0  0  0  0  0  0  0
    7.1722    0.0574   18.5945 C   0  0  0  0  0  0  0  0  0  0  0  0
    8.6250   -0.4727   21.4192 C   0  0  0  0  0  0  0  0  0  0  0  0
    9.5268    0.6174   20.9400 C   0  0  0  0  0  0  0  0  0  0  0  0
    9.0417    2.0177   21.3458 C   0  0  0  0  0  0  0  0  0  0  0  0
    8.9859    2.2065   22.8624 C   0  0  0  0  0  0  0  0  0  0  0  0
    8.5387    3.5364   23.2330 N   0  0  0  0  0  0  0  0  0  0  0  0
    7.2304    3.9574   23.3311 C   0  0  0  0  0  0  0  0  0  0  0  0
    7.2919    5.2988   23.5656 C   0  0  0  0  0  0  0  0  0  0  0  0
    8.5961    5.7261   23.6048 N   0  0  0  0  0  0  0  0  0  0  0  0
    9.3110    4.6511   23.3841 C   0  0  0  0  0  0  0  0  0  0  0  0
    8.8492   -1.2786   22.4357 N   0  0  0  0  0  0  0  0  0  0  0  0
    7.3637   -2.2305   25.0411 C   0  0  0  0  0  0  0  0  0  0  0  0
    7.1495   -3.2359   26.1745 C   0  0  0  0  0  0  0  0  0  0  0  0
  2  1  1  1
  2  3  1  0
  3  4  1  0
  4  5  1  0
  5  6  1  6
  6  7  2  0
  7  8  1  0
  8  9  1  0
  9 10  2  0
 10 11  1  0
 11 12  2  0
 12 13  1  0
 13 14  2  0
  8 15  1  0
 15 16  1  0
 16 17  1  0
 17 18  1  0
 18 19  1  0
 19 20  1  0
 20 21  2  0
 21 22  1  0
 22 23  2  0
 15 24  2  0
  5 25  1  0
 25 26  1  0
 26  2  1  0
 24  6  1  0
 14  9  1  0
 23 19  1  0
M  END
>  <cnnaffinity>  (229) 
-6.26582

>  <filename>  (229) 
CC1CCC(c2nc(CCCn3ccnc3)n(-c3cccnc3)n2)CC1

>  <enamine_id>  (229) 
PV-006866121805

$$$$

     RDKit          3D

 24 26  0  0  0  0  0  0  0  0999 V2000
    9.0090   -6.1613   24.3368 C   0  0  0  0  0  0  0  0  0  0  0  0
    7.9271   -5.2848   24.1521 O   0  0  0  0  0  0  0  0  0  0  0  0
    8.0025   -4.4127   23.0418 C   0  0  1  0  0  0  0  0  0  0  0  0
    7.2338   -4.9873   21.8557 C   0  0  0  0  0  0  0  0  0  0  0  0
    7.4051   -3.0968   23.5436 C   0  0  0  0  0  0  0  0  0  0  0  0
    7.5789   -2.0400   22.5290 C   0  0  0  0  0  0  0  0  0  0  0  0
    6.6446   -1.6408   21.6952 N   0  0  0  0  0  0  0  0  0  0  0  0
    7.2923   -0.7138   20.9407 N   0  0  0  0  0  0  0  0  0  0  0  0
    6.6280   -0.0330   19.8885 C   0  0  0  0  0  0  0  0  0  0  0  0
    5.4219    0.6245   20.1477 C   0  0  0  0  0  0  0  0  0  0  0  0
    4.7977    1.3114   19.1031 C   0  0  0  0  0  0  0  0  0  0  0  0
    5.3943    1.2936   17.8366 C   0  0  0  0  0  0  0  0  0  0  0  0
    6.5416    0.6505   17.5746 N   0  0  0  0  0  0  0  0  0  0  0  0
    7.1461    0.0139   18.5807 C   0  0  0  0  0  0  0  0  0  0  0  0
    8.5745   -0.6040   21.3857 C   0  0  0  0  0  0  0  0  0  0  0  0
    9.6286    0.2749   20.8067 C   0  0  0  0  0  0  0  0  0  0  0  0
   10.3621    1.0732   21.8617 C   0  0  0  0  0  0  0  0  0  0  0  0
   11.6365    0.6732   22.2868 C   0  0  0  0  0  0  0  0  0  0  0  0
   12.2931    1.3202   23.3409 C   0  0  0  0  0  0  0  0  0  0  0  0
   11.6637    2.3896   23.9858 C   0  0  0  0  0  0  0  0  0  0  0  0
   10.4065    2.8266   23.5599 C   0  0  0  0  0  0  0  0  0  0  0  0
    9.7646    2.1695   22.5060 C   0  0  0  0  0  0  0  0  0  0  0  0
    8.1670    2.7129   22.0496 Cl  0  0  0  0  0  0  0  0  0  0  0  0
    8.7912   -1.4566   22.3633 N   0  0  0  0  0  0  0  0  0  0  0  0
  1  2  1  0
  2  3  1  0
  3  4  1  6
  3  5  1  0
  5  6  1  0
  6  7  2  0
  7  8  1  0
  8  9  1  0
  9 10  2  0
 10 11  1  0
 11 12  2  0
 12 13  1  0
 13 14  2  0
  8 15  1  0
 15 16  1  0
 16 17  1  0
 17 18  2  0
 18 19  1  0
 19 20  2  0
 20 21  1  0
 21 22  2  0
 22 23  1  0
 15 24  2  0
 24  6  1  0
 14  9  1  0
 22 17  1  0
M  END
>  <cnnaffinity>  (230) 
-6.26472

>  <filename>  (230) 
COC(C)Cc1nc(Cc2ccccc2Cl)n(-c2cccnc2)n1

>  <enamine_id>  (230) 
PV-006872339003

$$$$

     RDKit          3D

 26 29  0  0  0  0  0  0  0  0999 V2000
    9.0395    5.7464   25.0654 F   0  0  0  0  0  0  0  0  0  0  0  0
    8.2361    5.1945   24.1442 C   0  0  0  0  0  0  0  0  0  0  0  0
    6.9935    5.7664   23.9195 C   0  0  0  0  0  0  0  0  0  0  0  0
    6.1713    5.1769   22.9534 C   0  0  0  0  0  0  0  0  0  0  0  0
    6.6047    4.0559   22.2557 C   0  0  0  0  0  0  0  0  0  0  0  0
    5.7729    3.5231   21.3392 F   0  0  0  0  0  0  0  0  0  0  0  0
    7.8731    3.4684   22.4872 C   0  0  0  0  0  0  0  0  0  0  0  0
    8.1983    2.3576   21.7701 O   0  0  0  0  0  0  0  0  0  0  0  0
    9.4872    1.7590   21.9065 C   0  0  0  0  0  0  0  0  0  0  0  0
    9.5392    0.5434   20.9811 C   0  0  0  0  0  0  0  0  0  0  0  0
    8.5931   -0.5237   21.4030 C   0  0  0  0  0  0  0  0  0  0  0  0
    8.8221   -1.3789   22.3751 N   0  0  0  0  0  0  0  0  0  0  0  0
    7.6316   -2.0294   22.5036 C   0  0  0  0  0  0  0  0  0  0  0  0
    7.4019   -3.0572   23.5583 C   0  0  0  0  0  0  0  0  0  0  0  0
    8.5145   -4.1387   23.7181 C   0  0  0  0  0  0  0  0  0  0  0  0
    8.7914   -3.6419   25.1567 C   0  0  0  0  0  0  0  0  0  0  0  0
    7.6677   -2.5874   25.0261 C   0  0  0  0  0  0  0  0  0  0  0  0
    6.6992   -1.6416   21.6581 N   0  0  0  0  0  0  0  0  0  0  0  0
    7.3274   -0.6798   20.9291 N   0  0  0  0  0  0  0  0  0  0  0  0
    6.6518    0.0085   19.8928 C   0  0  0  0  0  0  0  0  0  0  0  0
    5.4350    0.6385   20.1594 C   0  0  0  0  0  0  0  0  0  0  0  0
    4.8106    1.3051   19.1050 C   0  0  0  0  0  0  0  0  0  0  0  0
    5.3981    1.2926   17.8336 C   0  0  0  0  0  0  0  0  0  0  0  0
    6.5548    0.6680   17.5700 N   0  0  0  0  0  0  0  0  0  0  0  0
    7.1670    0.0508   18.5861 C   0  0  0  0  0  0  0  0  0  0  0  0
    8.6946    4.0671   23.4572 C   0  0  0  0  0  0  0  0  0  0  0  0
  1  2  1  0
  2  3  2  0
  3  4  1  0
  4  5  2  0
  5  6  1  0
  5  7  1  0
  7  8  1  0
  8  9  1  0
  9 10  1  0
 10 11  1  0
 11 12  2  0
 12 13  1  0
 13 14  1  0
 14 15  1  0
 15 16  1  0
 16 17  1  0
 13 18  2  0
 18 19  1  0
 19 20  1  0
 20 21  2  0
 21 22  1  0
 22 23  2  0
 23 24  1  0
 24 25  2  0
  7 26  2  0
 26  2  1  0
 19 11  1  0
 25 20  1  0
 17 14  1  0
M  END
>  <cnnaffinity>  (231) 
-6.26388

>  <filename>  (231) 
Fc1ccc(F)c(OCCc2nc(C3CCC3)nn2-c2cccnc2)c1

>  <enamine_id>  (231) 
PV-007038650831

$$$$

     RDKit          3D

 26 29  0  0  0  0  0  0  0  0999 V2000
   12.8923    1.0500   23.3958 Cl  0  0  0  0  0  0  0  0  0  0  0  0
   11.3347    1.8133   23.5243 C   0  0  0  0  0  0  0  0  0  0  0  0
   11.1073    2.6682   24.5880 C   0  0  0  0  0  0  0  0  0  0  0  0
    9.8618    3.2818   24.7595 C   0  0  0  0  0  0  0  0  0  0  0  0
    8.8393    3.0320   23.8488 C   0  0  0  0  0  0  0  0  0  0  0  0
    9.0563    2.1781   22.7634 C   0  0  0  0  0  0  0  0  0  0  0  0
   10.3136    1.5720   22.5867 C   0  0  0  0  0  0  0  0  0  0  0  0
   10.6438    0.7563   21.5570 O   0  0  0  0  0  0  0  0  0  0  0  0
    9.6391    0.2413   20.7094 C   0  0  0  0  0  0  0  0  0  0  0  0
    8.6168   -0.6210   21.3676 C   0  0  0  0  0  0  0  0  0  0  0  0
    8.8342   -1.4786   22.3373 N   0  0  0  0  0  0  0  0  0  0  0  0
    7.5950   -1.9825   22.5786 C   0  0  0  0  0  0  0  0  0  0  0  0
    7.3589   -2.8984   23.7387 C   0  0  0  0  0  0  0  0  0  0  0  0
    7.5775   -2.1588   25.0940 C   0  0  0  0  0  0  0  0  0  0  0  0
    7.4548   -3.1434   26.2568 C   0  0  0  0  0  0  0  0  0  0  0  0
    8.3434   -4.2363   26.1125 O   0  0  0  0  0  0  0  0  0  0  0  0
    8.1088   -4.9915   24.9378 C   0  0  0  0  0  0  0  0  0  0  0  0
    8.2826   -4.1439   23.6781 C   0  0  0  0  0  0  0  0  0  0  0  0
    6.6499   -1.5382   21.7753 N   0  0  0  0  0  0  0  0  0  0  0  0
    7.3175   -0.6799   20.9622 N   0  0  0  0  0  0  0  0  0  0  0  0
    6.6508   -0.0043   19.9006 C   0  0  0  0  0  0  0  0  0  0  0  0
    5.4363    0.6425   20.1545 C   0  0  0  0  0  0  0  0  0  0  0  0
    4.8073    1.3127   19.1026 C   0  0  0  0  0  0  0  0  0  0  0  0
    5.3978    1.2971   17.8325 C   0  0  0  0  0  0  0  0  0  0  0  0
    6.5497    0.6608   17.5735 N   0  0  0  0  0  0  0  0  0  0  0  0
    7.1596    0.0339   18.5874 C   0  0  0  0  0  0  0  0  0  0  0  0
  1  2  1  0
  2  3  2  0
  3  4  1  0
  4  5  2  0
  5  6  1  0
  6  7  2  0
  7  8  1  0
  8  9  1  0
  9 10  1  0
 10 11  2  0
 11 12  1  0
 12 13  1  0
 13 14  1  0
 14 15  1  0
 15 16  1  0
 16 17  1  0
 17 18  1  0
 12 19  2  0
 19 20  1  0
 20 21  1  0
 21 22  2  0
 22 23  1  0
 23 24  2  0
 24 25  1  0
 25 26  2  0
  7  2  1  0
 20 10  1  0
 26 21  1  0
 18 13  1  0
M  END
>  <cnnaffinity>  (232) 
-6.26351

>  <filename>  (232) 
Clc1ccccc1OCc1nc(C2CCOCC2)nn1-c1cccnc1

>  <enamine_id>  (232) 
PV-007122519582

$$$$

     RDKit          3D

 28 31  0  0  0  0  0  0  0  0999 V2000
    7.4783    5.6451   26.6761 F   0  0  0  0  0  0  0  0  0  0  0  0
    7.8642    4.7346   25.7695 C   0  0  0  0  0  0  0  0  0  0  0  0
    7.8470    5.0570   24.4217 C   0  0  0  0  0  0  0  0  0  0  0  0
    8.2522    4.0950   23.4827 C   0  0  0  0  0  0  0  0  0  0  0  0
    8.6705    2.8172   23.8818 C   0  0  0  0  0  0  0  0  0  0  0  0
    9.0846    1.8242   23.0528 O   0  0  0  0  0  0  0  0  0  0  0  0
    9.0631    1.9894   21.6373 C   0  0  0  0  0  0  0  0  0  0  0  0
    9.4959    0.6571   21.0241 C   0  0  0  0  0  0  0  0  0  0  0  0
    8.6110   -0.4579   21.4453 C   0  0  0  0  0  0  0  0  0  0  0  0
    8.8421   -1.2937   22.4334 N   0  0  0  0  0  0  0  0  0  0  0  0
    7.6585   -1.9507   22.5652 C   0  0  0  0  0  0  0  0  0  0  0  0
    7.4017   -2.9007   23.7041 C   0  0  0  0  0  0  0  0  0  0  0  0
    8.6016   -3.8623   23.9639 C   0  0  0  0  0  0  0  0  0  0  0  0
    9.4717   -3.3730   25.1254 C   0  0  0  0  0  0  0  0  0  0  0  0
    8.7450   -3.2745   26.3444 O   0  0  0  0  0  0  0  0  0  0  0  0
    7.3648   -2.9366   26.2518 C   0  0  0  0  0  0  0  0  0  0  0  0
    7.0421   -2.1081   25.0076 C   0  0  0  0  0  0  0  0  0  0  0  0
    6.7331   -1.6093   21.6942 N   0  0  0  0  0  0  0  0  0  0  0  0
    7.3569   -0.6586   20.9417 N   0  0  0  0  0  0  0  0  0  0  0  0
    6.6576    0.0119   19.8996 C   0  0  0  0  0  0  0  0  0  0  0  0
    5.4380    0.6451   20.1645 C   0  0  0  0  0  0  0  0  0  0  0  0
    4.8119    1.3114   19.1076 C   0  0  0  0  0  0  0  0  0  0  0  0
    5.3997    1.2970   17.8362 C   0  0  0  0  0  0  0  0  0  0  0  0
    6.5571    0.6712   17.5733 N   0  0  0  0  0  0  0  0  0  0  0  0
    7.1666    0.0507   18.5893 C   0  0  0  0  0  0  0  0  0  0  0  0
    8.6648    2.5451   25.2730 C   0  0  0  0  0  0  0  0  0  0  0  0
    9.0479    1.3339   25.7170 F   0  0  0  0  0  0  0  0  0  0  0  0
    8.2726    3.4813   26.2189 C   0  0  0  0  0  0  0  0  0  0  0  0
  1  2  1  0
  2  3  2  0
  3  4  1  0
  4  5  2  0
  5  6  1  0
  6  7  1  0
  7  8  1  0
  8  9  1  0
  9 10  2  0
 10 11  1  0
 11 12  1  0
 12 13  1  0
 13 14  1  0
 14 15  1  0
 15 16  1  0
 16 17  1  0
 11 18  2  0
 18 19  1  0
 19 20  1  0
 20 21  2  0
 21 22  1  0
 22 23  2  0
 23 24  1  0
 24 25  2  0
  5 26  1  0
 26 27  1  0
 26 28  2  0
 28  2  1  0
 19  9  1  0
 25 20  1  0
 17 12  1  0
M  END
>  <cnnaffinity>  (233) 
-6.26296

>  <filename>  (233) 
Fc1ccc(OCCc2nc(C3CCOCC3)nn2-c2cccnc2)c(F)c1

>  <enamine_id>  (233) 
PV-006942682763

$$$$

     RDKit          3D

 23 26  0  0  0  0  0  0  0  0999 V2000
    4.8120    1.3115   19.1085 C   0  0  0  0  0  0  0  0  0  0  0  0
    5.4016    1.2957   17.8371 C   0  0  0  0  0  0  0  0  0  0  0  0
    6.5622    0.6754   17.5752 N   0  0  0  0  0  0  0  0  0  0  0  0
    7.1708    0.0566   18.5924 C   0  0  0  0  0  0  0  0  0  0  0  0
    6.6589    0.0109   19.8993 C   0  0  0  0  0  0  0  0  0  0  0  0
    7.3560   -0.6679   20.9349 N   0  0  0  0  0  0  0  0  0  0  0  0
    6.7257   -1.6088   21.6899 N   0  0  0  0  0  0  0  0  0  0  0  0
    7.6508   -1.9608   22.5557 C   0  0  0  0  0  0  0  0  0  0  0  0
    7.4243   -2.9179   23.6746 C   0  0  0  0  0  0  0  0  0  0  0  0
    7.5194   -2.2921   25.1030 C   0  0  0  0  0  0  0  0  0  0  0  0
    8.7198   -3.2088   25.4211 C   0  0  0  0  0  0  0  0  0  0  0  0
    8.6136   -3.8596   24.0244 C   0  0  0  0  0  0  0  0  0  0  0  0
    8.8405   -1.3140   22.4134 N   0  0  0  0  0  0  0  0  0  0  0  0
    8.6228   -0.4876   21.4164 C   0  0  0  0  0  0  0  0  0  0  0  0
    9.5267    0.6081   20.9470 C   0  0  0  0  0  0  0  0  0  0  0  0
    9.0522    2.0081   21.3848 C   0  0  0  0  0  0  0  0  0  0  0  0
    8.9085    2.1552   22.9129 C   0  0  0  0  0  0  0  0  0  0  0  0
   10.2013    1.9539   23.6501 C   0  0  0  0  0  0  0  0  0  0  0  0
   11.3003    2.7471   23.5947 C   0  0  0  0  0  0  0  0  0  0  0  0
   12.4018    2.3383   24.2991 N   0  0  0  0  0  0  0  0  0  0  0  0
   12.1404    1.2219   24.8972 C   0  0  0  0  0  0  0  0  0  0  0  0
   10.5574    0.6000   24.6554 S   0  0  0  0  0  0  0  0  0  0  0  0
    5.4397    0.6465   20.1653 C   0  0  0  0  0  0  0  0  0  0  0  0
  1  2  2  0
  2  3  1  0
  3  4  2  0
  4  5  1  0
  5  6  1  0
  6  7  1  0
  7  8  2  0
  8  9  1  0
  9 10  1  0
 10 11  1  0
 11 12  1  0
  8 13  1  0
 13 14  2  0
 14 15  1  0
 15 16  1  0
 16 17  1  0
 17 18  1  0
 18 19  2  0
 19 20  1  0
 20 21  2  0
 21 22  1  0
  5 23  2  0
 23  1  1  0
 14  6  1  0
 22 18  1  0
 12  9  1  0
M  END
>  <cnnaffinity>  (234) 
-6.26293

>  <filename>  (234) 
c1cncc(-n2nc(C3CCC3)nc2CCCc2cncs2)c1

>  <enamine_id>  (234) 
PV-006974627883

$$$$

     RDKit          3D

 24 27  0  0  0  0  0  0  0  0999 V2000
   12.0364    0.4406   23.0262 C   0  0  0  0  0  0  0  0  0  0  0  0
   10.9548    1.4679   22.9411 C   0  0  0  0  0  0  0  0  0  0  0  0
   10.7954    2.4334   23.8371 N   0  0  0  0  0  0  0  0  0  0  0  0
    9.6476    3.0408   23.4694 N   0  0  0  0  0  0  0  0  0  0  0  0
    9.0677    2.4968   22.3682 C   0  0  0  0  0  0  0  0  0  0  0  0
    7.7403    2.8846   21.7934 C   0  0  0  0  0  0  0  0  0  0  0  0
    9.9171    1.4843   21.9753 C   0  0  0  0  0  0  0  0  0  0  0  0
    9.6331    0.4376   20.9211 C   0  0  0  0  0  0  0  0  0  0  0  0
    8.6169   -0.5615   21.3803 C   0  0  0  0  0  0  0  0  0  0  0  0
    8.8346   -1.4140   22.3601 N   0  0  0  0  0  0  0  0  0  0  0  0
    7.6292   -2.0188   22.5263 C   0  0  0  0  0  0  0  0  0  0  0  0
    7.3930   -3.0327   23.6105 C   0  0  0  0  0  0  0  0  0  0  0  0
    6.3545   -4.1124   23.2347 C   0  0  0  0  0  0  0  0  0  0  0  0
    6.6533   -5.3153   24.1534 C   0  0  0  0  0  0  0  0  0  0  0  0
    8.1105   -5.1346   24.6669 C   0  0  0  0  0  0  0  0  0  0  0  0
    8.6485   -3.8354   24.0268 C   0  0  0  0  0  0  0  0  0  0  0  0
    6.6856   -1.5987   21.6973 N   0  0  0  0  0  0  0  0  0  0  0  0
    7.3377   -0.6851   20.9297 N   0  0  0  0  0  0  0  0  0  0  0  0
    6.6458   -0.0128   19.8862 C   0  0  0  0  0  0  0  0  0  0  0  0
    5.4332    0.6300   20.1501 C   0  0  0  0  0  0  0  0  0  0  0  0
    4.8036    1.3119   19.1025 C   0  0  0  0  0  0  0  0  0  0  0  0
    5.3938    1.3024   17.8325 C   0  0  0  0  0  0  0  0  0  0  0  0
    6.5428    0.6630   17.5639 N   0  0  0  0  0  0  0  0  0  0  0  0
    7.1521    0.0324   18.5765 C   0  0  0  0  0  0  0  0  0  0  0  0
  1  2  1  0
  2  3  2  0
  3  4  1  0
  4  5  1  0
  5  6  1  0
  5  7  2  0
  7  8  1  0
  8  9  1  0
  9 10  2  0
 10 11  1  0
 11 12  1  0
 12 13  1  0
 13 14  1  0
 14 15  1  0
 15 16  1  0
 11 17  2  0
 17 18  1  0
 18 19  1  0
 19 20  2  0
 20 21  1  0
 21 22  2  0
 22 23  1  0
 23 24  2  0
  7  2  1  0
 18  9  1  0
 24 19  1  0
 16 12  1  0
M  END
>  <cnnaffinity>  (235) 
-6.26169

>  <filename>  (235) 
Cc1n[nH]c(C)c1Cc1nc(C2CCCC2)nn1-c1cccnc1

>  <enamine_id>  (235) 
PV-007058188791

$$$$

     RDKit          3D

 26 29  0  0  0  0  0  0  0  0999 V2000
    7.0271    0.9096   27.9265 F   0  0  0  0  0  0  0  0  0  0  0  0
    7.0813    0.1404   26.8382 C   0  0  0  0  0  0  0  0  0  0  0  0
    7.0157    0.7587   25.5878 C   0  0  0  0  0  0  0  0  0  0  0  0
    7.0728   -0.0604   24.4599 C   0  0  0  0  0  0  0  0  0  0  0  0
    7.1407   -1.4459   24.6576 C   0  0  0  0  0  0  0  0  0  0  0  0
    7.0764   -2.3685   23.5849 N   0  0  0  0  0  0  0  0  0  0  0  0
    6.1757   -3.3743   23.6575 N   0  0  0  0  0  0  0  0  0  0  0  0
    6.3751   -4.0419   22.5333 C   0  0  0  0  0  0  0  0  0  0  0  0
    5.6816   -5.3573   22.3275 C   0  0  0  0  0  0  0  0  0  0  0  0
    4.1754   -5.3655   22.6848 C   0  0  0  0  0  0  0  0  0  0  0  0
    3.8615   -6.7769   23.2044 C   0  0  0  0  0  0  0  0  0  0  0  0
    5.2045   -7.4226   23.6091 C   0  0  0  0  0  0  0  0  0  0  0  0
    6.3206   -6.4188   23.2618 C   0  0  0  0  0  0  0  0  0  0  0  0
    7.3687   -3.5505   21.7528 N   0  0  0  0  0  0  0  0  0  0  0  0
    7.8061   -2.5106   22.4467 C   0  0  0  0  0  0  0  0  0  0  0  0
    8.9878   -1.6877   22.0724 C   0  0  0  0  0  0  0  0  0  0  0  0
    8.7536   -0.9123   20.7906 C   0  0  0  0  0  0  0  0  0  0  0  0
    7.5391   -0.1765   20.9731 O   0  0  0  0  0  0  0  0  0  0  0  0
    6.8386    0.2458   19.8831 C   0  0  0  0  0  0  0  0  0  0  0  0
    5.5726    0.8044   20.1213 C   0  0  0  0  0  0  0  0  0  0  0  0
    4.8573    1.3139   19.0383 C   0  0  0  0  0  0  0  0  0  0  0  0
    5.4149    1.2419   17.7536 C   0  0  0  0  0  0  0  0  0  0  0  0
    6.6027    0.6725   17.5072 N   0  0  0  0  0  0  0  0  0  0  0  0
    7.2921    0.1846   18.5481 C   0  0  0  0  0  0  0  0  0  0  0  0
    7.1929   -1.9442   25.9619 C   0  0  0  0  0  0  0  0  0  0  0  0
    7.1845   -1.1577   27.0431 N   0  0  0  0  0  0  0  0  0  0  0  0
  1  2  1  0
  2  3  2  0
  3  4  1  0
  4  5  2  0
  5  6  1  0
  6  7  1  0
  7  8  2  0
  8  9  1  0
  9 10  1  0
 10 11  1  0
 11 12  1  0
 12 13  1  0
  8 14  1  0
 14 15  2  0
 15 16  1  0
 16 17  1  0
 17 18  1  0
 18 19  1  0
 19 20  2  0
 20 21  1  0
 21 22  2  0
 22 23  1  0
 23 24  2  0
  5 25  1  0
 25 26  2  0
 26  2  1  0
 15  6  1  0
 24 19  1  0
 13  9  1  0
M  END
>  <cnnaffinity>  (236) 
-6.2612

>  <filename>  (236) 
Fc1ccc(-n2nc(C3CCCC3)nc2CCOc2cccnc2)cn1

>  <enamine_id>  (236) 
PV-005867066112

$$$$

     RDKit          3D

 25 27  0  0  0  0  0  0  0  0999 V2000
    6.6968   -1.9000   25.4777 C   0  0  0  0  0  0  0  0  0  0  0  0
    6.3475   -2.7888   24.4301 O   0  0  0  0  0  0  0  0  0  0  0  0
    7.4423   -3.0757   23.5677 C   0  0  1  0  0  0  0  0  0  0  0  0
    7.1938   -4.4339   22.9210 C   0  0  0  0  0  0  0  0  0  0  0  0
    7.6768   -1.9908   22.5282 C   0  0  0  0  0  0  0  0  0  0  0  0
    6.7467   -1.6286   21.6651 N   0  0  0  0  0  0  0  0  0  0  0  0
    7.3663   -0.6763   20.9245 N   0  0  0  0  0  0  0  0  0  0  0  0
    6.6579    0.0046   19.8956 C   0  0  0  0  0  0  0  0  0  0  0  0
    5.4412    0.6399   20.1666 C   0  0  0  0  0  0  0  0  0  0  0  0
    4.8131    1.3084   19.1114 C   0  0  0  0  0  0  0  0  0  0  0  0
    5.3981    1.2963   17.8386 C   0  0  0  0  0  0  0  0  0  0  0  0
    6.5565    0.6728   17.5730 N   0  0  0  0  0  0  0  0  0  0  0  0
    7.1663    0.0499   18.5857 C   0  0  0  0  0  0  0  0  0  0  0  0
    8.6376   -0.5037   21.3986 C   0  0  0  0  0  0  0  0  0  0  0  0
    9.5410    0.5901   20.9452 C   0  0  0  0  0  0  0  0  0  0  0  0
    9.1991    1.9621   21.5858 C   0  0  0  0  0  0  0  0  0  0  0  0
    9.4112    1.9461   23.0773 C   0  0  0  0  0  0  0  0  0  0  0  0
    8.3799    1.7430   24.0155 C   0  0  0  0  0  0  0  0  0  0  0  0
    6.7228    1.5813   23.5255 Cl  0  0  0  0  0  0  0  0  0  0  0  0
    8.6675    1.6756   25.3822 C   0  0  0  0  0  0  0  0  0  0  0  0
    9.8997    1.7840   25.8779 N   0  0  0  0  0  0  0  0  0  0  0  0
   10.8956    1.9482   25.0068 C   0  0  0  0  0  0  0  0  0  0  0  0
   10.6999    2.0359   23.6303 C   0  0  0  0  0  0  0  0  0  0  0  0
   12.0951    2.2690   22.6255 Cl  0  0  0  0  0  0  0  0  0  0  0  0
    8.8697   -1.3527   22.3863 N   0  0  0  0  0  0  0  0  0  0  0  0
  1  2  1  0
  2  3  1  0
  3  4  1  6
  3  5  1  0
  5  6  2  0
  6  7  1  0
  7  8  1  0
  8  9  2  0
  9 10  1  0
 10 11  2  0
 11 12  1  0
 12 13  2  0
  7 14  1  0
 14 15  1  0
 15 16  1  0
 16 17  1  0
 17 18  2  0
 18 19  1  0
 18 20  1  0
 20 21  2  0
 21 22  1  0
 22 23  2  0
 23 24  1  0
 14 25  2  0
 25  5  1  0
 13  8  1  0
 23 17  1  0
M  END
>  <cnnaffinity>  (237) 
-6.26086

>  <filename>  (237) 
COC(C)c1nc(CCc2c(Cl)cncc2Cl)n(-c2cccnc2)n1

>  <enamine_id>  (237) 
PV-007166449923

$$$$

     RDKit          3D

 27 30  0  0  0  0  0  0  0  0999 V2000
    9.3634    3.8266   25.7437 F   0  0  0  0  0  0  0  0  0  0  0  0
    9.6645    3.0721   24.6736 C   0  0  0  0  0  0  0  0  0  0  0  0
    8.7097    2.8666   23.6877 C   0  0  0  0  0  0  0  0  0  0  0  0
    9.0270    2.0542   22.5929 C   0  0  0  0  0  0  0  0  0  0  0  0
   10.2897    1.4549   22.4679 C   0  0  0  0  0  0  0  0  0  0  0  0
   10.6576    0.6274   21.4490 O   0  0  0  0  0  0  0  0  0  0  0  0
    9.6419    0.0830   20.6220 C   0  0  0  0  0  0  0  0  0  0  0  0
    8.5958   -0.7296   21.3291 C   0  0  0  0  0  0  0  0  0  0  0  0
    8.7711   -1.5142   22.3709 N   0  0  0  0  0  0  0  0  0  0  0  0
    7.5211   -1.9807   22.6253 C   0  0  0  0  0  0  0  0  0  0  0  0
    7.2838   -2.8934   23.8076 C   0  0  0  0  0  0  0  0  0  0  0  0
    7.6367   -2.1692   25.1535 C   0  0  0  0  0  0  0  0  0  0  0  0
    9.0398   -2.5467   25.6434 C   0  0  0  0  0  0  0  0  0  0  0  0
    9.1860   -3.9425   25.8820 O   0  0  0  0  0  0  0  0  0  0  0  0
    8.4367   -4.8217   25.0467 C   0  0  0  0  0  0  0  0  0  0  0  0
    8.1232   -4.2070   23.6781 C   0  0  0  0  0  0  0  0  0  0  0  0
    6.5940   -1.5480   21.7977 N   0  0  0  0  0  0  0  0  0  0  0  0
    7.2935   -0.7704   20.9246 N   0  0  0  0  0  0  0  0  0  0  0  0
    6.6241   -0.0697   19.8838 C   0  0  0  0  0  0  0  0  0  0  0  0
    5.4277    0.6092   20.1465 C   0  0  0  0  0  0  0  0  0  0  0  0
    4.8325    1.3105   19.0929 C   0  0  0  0  0  0  0  0  0  0  0  0
    5.4329    1.3052   17.8279 C   0  0  0  0  0  0  0  0  0  0  0  0
    6.5619    0.6354   17.5635 N   0  0  0  0  0  0  0  0  0  0  0  0
    7.1332   -0.0365   18.5703 C   0  0  0  0  0  0  0  0  0  0  0  0
   11.2312    1.7042   23.4781 C   0  0  0  0  0  0  0  0  0  0  0  0
   12.4622    1.1659   23.4136 F   0  0  0  0  0  0  0  0  0  0  0  0
   10.9276    2.4848   24.5766 C   0  0  0  0  0  0  0  0  0  0  0  0
  1  2  1  0
  2  3  2  0
  3  4  1  0
  4  5  2  0
  5  6  1  0
  6  7  1  0
  7  8  1  0
  8  9  2  0
  9 10  1  0
 10 11  1  0
 11 12  1  0
 12 13  1  0
 13 14  1  0
 14 15  1  0
 15 16  1  0
 10 17  2  0
 17 18  1  0
 18 19  1  0
 19 20  2  0
 20 21  1  0
 21 22  2  0
 22 23  1  0
 23 24  2  0
  5 25  1  0
 25 26  1  0
 25 27  2  0
 27  2  1  0
 18  8  1  0
 24 19  1  0
 16 11  1  0
M  END
>  <cnnaffinity>  (238) 
-6.26054

>  <filename>  (238) 
Fc1ccc(OCc2nc(C3CCOCC3)nn2-c2cccnc2)c(F)c1

>  <enamine_id>  (238) 
PV-007001739466

$$$$

     RDKit          3D

 27 30  0  0  0  0  0  0  0  0999 V2000
   12.2932    1.8867   24.8909 F   0  0  0  0  0  0  0  0  0  0  0  0
   11.1934    1.1158   24.8598 C   0  0  0  0  0  0  0  0  0  0  0  0
   11.3236   -0.2464   25.1278 C   0  0  0  0  0  0  0  0  0  0  0  0
   10.1959   -1.0778   25.0160 C   0  0  0  0  0  0  0  0  0  0  0  0
    8.9576   -0.5147   24.7190 C   0  0  0  0  0  0  0  0  0  0  0  0
    8.8515    0.8652   24.5163 C   0  0  0  0  0  0  0  0  0  0  0  0
    7.5547    1.3694   24.2338 N   0  0  0  0  0  0  0  0  0  0  0  0
    6.5707    1.3284   25.1677 N   0  0  0  0  0  0  0  0  0  0  0  0
    5.5298    1.7874   24.5037 C   0  0  0  0  0  0  0  0  0  0  0  0
    4.1923    1.9655   25.1604 C   0  0  0  0  0  0  0  0  0  0  0  0
    3.5511    0.6294   25.6093 C   0  0  0  0  0  0  0  0  0  0  0  0
    2.1019    0.8744   26.0587 C   0  0  0  0  0  0  0  0  0  0  0  0
    1.8972    2.1648   26.6209 O   0  0  0  0  0  0  0  0  0  0  0  0
    3.0054    2.7019   27.3165 C   0  0  0  0  0  0  0  0  0  0  0  0
    4.2371    2.9131   26.4009 C   0  0  0  0  0  0  0  0  0  0  0  0
    5.7646    2.0606   23.1903 N   0  0  0  0  0  0  0  0  0  0  0  0
    7.0468    1.7668   23.0428 C   0  0  0  0  0  0  0  0  0  0  0  0
    7.8691    1.7723   21.7916 C   0  0  0  0  0  0  0  0  0  0  0  0
    8.4343    0.3929   21.3748 C   0  0  0  0  0  0  0  0  0  0  0  0
    7.3491   -0.6224   20.9583 C   0  0  0  0  0  0  0  0  0  0  0  0
    6.5414   -0.0930   19.7952 C   0  0  0  0  0  0  0  0  0  0  0  0
    5.3247    0.5775   19.9865 C   0  0  0  0  0  0  0  0  0  0  0  0
    4.7700    1.2930   18.9203 C   0  0  0  0  0  0  0  0  0  0  0  0
    5.4322    1.2817   17.6879 C   0  0  0  0  0  0  0  0  0  0  0  0
    6.5670    0.6036   17.4636 N   0  0  0  0  0  0  0  0  0  0  0  0
    7.0973   -0.0554   18.5019 C   0  0  0  0  0  0  0  0  0  0  0  0
    9.9715    1.7040   24.5430 C   0  0  0  0  0  0  0  0  0  0  0  0
  1  2  1  0
  2  3  2  0
  3  4  1  0
  4  5  2  0
  5  6  1  0
  6  7  1  0
  7  8  1  0
  8  9  2  0
  9 10  1  0
 10 11  1  0
 11 12  1  0
 12 13  1  0
 13 14  1  0
 14 15  1  0
  9 16  1  0
 16 17  2  0
 17 18  1  0
 18 19  1  0
 19 20  1  0
 20 21  1  0
 21 22  2  0
 22 23  1  0
 23 24  2  0
 24 25  1  0
 25 26  2  0
  6 27  2  0
 27  2  1  0
 17  7  1  0
 26 21  1  0
 15 10  1  0
M  END
>  <cnnaffinity>  (239) 
-6.2597

>  <filename>  (239) 
Fc1cccc(-n2nc(C3CCOCC3)nc2CCCc2cccnc2)c1

>  <enamine_id>  (239) 
PV-005385102703

$$$$

     RDKit          3D

 26 29  0  0  0  0  0  0  0  0999 V2000
    7.1687    6.1270   26.0477 F   0  0  0  0  0  0  0  0  0  0  0  0
    7.6015    5.1305   25.2682 C   0  0  0  0  0  0  0  0  0  0  0  0
    7.6686    5.3121   23.8960 C   0  0  0  0  0  0  0  0  0  0  0  0
    8.1179    4.2780   23.0638 C   0  0  0  0  0  0  0  0  0  0  0  0
    8.5073    3.0501   23.6140 C   0  0  0  0  0  0  0  0  0  0  0  0
    8.9644    1.9849   22.9057 O   0  0  0  0  0  0  0  0  0  0  0  0
    9.0340    2.0196   21.4824 C   0  0  0  0  0  0  0  0  0  0  0  0
    9.5098    0.6433   21.0072 C   0  0  0  0  0  0  0  0  0  0  0  0
    8.6269   -0.4633   21.4569 C   0  0  0  0  0  0  0  0  0  0  0  0
    8.8626   -1.3094   22.4415 N   0  0  0  0  0  0  0  0  0  0  0  0
    7.6824   -1.9626   22.5652 C   0  0  0  0  0  0  0  0  0  0  0  0
    7.4243   -2.9547   23.6513 C   0  0  0  0  0  0  0  0  0  0  0  0
    6.2804   -2.5526   24.6323 C   0  0  0  0  0  0  0  0  0  0  0  0
    5.3043   -4.0290   24.1820 S   0  0  0  0  0  0  0  0  0  0  0  0
    6.7986   -4.2909   23.1674 C   0  0  0  0  0  0  0  0  0  0  0  0
    6.7567   -1.6151   21.6952 N   0  0  0  0  0  0  0  0  0  0  0  0
    7.3722   -0.6594   20.9528 N   0  0  0  0  0  0  0  0  0  0  0  0
    6.6622    0.0079   19.9081 C   0  0  0  0  0  0  0  0  0  0  0  0
    5.4407    0.6390   20.1703 C   0  0  0  0  0  0  0  0  0  0  0  0
    4.8147    1.3072   19.1117 C   0  0  0  0  0  0  0  0  0  0  0  0
    5.4011    1.2957   17.8392 C   0  0  0  0  0  0  0  0  0  0  0  0
    6.5598    0.6715   17.5782 N   0  0  0  0  0  0  0  0  0  0  0  0
    7.1681    0.0507   18.5958 C   0  0  0  0  0  0  0  0  0  0  0  0
    8.4396    2.8678   25.0083 C   0  0  0  0  0  0  0  0  0  0  0  0
    7.9799    3.9014   25.8243 C   0  0  0  0  0  0  0  0  0  0  0  0
    7.8278    3.6585   27.5234 Cl  0  0  0  0  0  0  0  0  0  0  0  0
  1  2  1  0
  2  3  2  0
  3  4  1  0
  4  5  2  0
  5  6  1  0
  6  7  1  0
  7  8  1  0
  8  9  1  0
  9 10  2  0
 10 11  1  0
 11 12  1  0
 12 13  1  0
 13 14  1  0
 14 15  1  0
 11 16  2  0
 16 17  1  0
 17 18  1  0
 18 19  2  0
 19 20  1  0
 20 21  2  0
 21 22  1  0
 22 23  2  0
  5 24  1  0
 24 25  2  0
 25 26  1  0
 25  2  1  0
 17  9  1  0
 23 18  1  0
 15 12  1  0
M  END
>  <cnnaffinity>  (240) 
-6.25681

>  <filename>  (240) 
Fc1ccc(OCCc2nc(C3CSC3)nn2-c2cccnc2)cc1Cl

>  <enamine_id>  (240) 
PV-007132091475

$$$$

     RDKit          3D

 25 28  0  0  0  0  0  0  0  0999 V2000
   11.4566    2.2624   23.0583 F   0  0  0  0  0  0  0  0  0  0  0  0
   10.3122    2.0941   23.7512 C   0  0  0  0  0  0  0  0  0  0  0  0
   10.3940    2.0181   25.1354 C   0  0  0  0  0  0  0  0  0  0  0  0
    9.2089    1.8476   25.8557 C   0  0  0  0  0  0  0  0  0  0  0  0
    7.9869    1.7248   25.2003 C   0  0  0  0  0  0  0  0  0  0  0  0
    7.9730    1.7886   23.8132 C   0  0  0  0  0  0  0  0  0  0  0  0
    6.7869    1.6456   23.1959 F   0  0  0  0  0  0  0  0  0  0  0  0
    9.1148    2.0058   23.0325 C   0  0  0  0  0  0  0  0  0  0  0  0
    9.0985    1.9964   21.5213 C   0  0  0  0  0  0  0  0  0  0  0  0
    9.5171    0.6113   20.9566 C   0  0  0  0  0  0  0  0  0  0  0  0
    8.6194   -0.4966   21.4091 C   0  0  0  0  0  0  0  0  0  0  0  0
    8.8430   -1.3242   22.4066 N   0  0  0  0  0  0  0  0  0  0  0  0
    7.6506   -1.9674   22.5559 C   0  0  0  0  0  0  0  0  0  0  0  0
    7.4145   -2.9212   23.6740 C   0  0  0  0  0  0  0  0  0  0  0  0
    8.5918   -3.8872   24.0032 C   0  0  0  0  0  0  0  0  0  0  0  0
    8.7188   -3.2535   25.4090 C   0  0  0  0  0  0  0  0  0  0  0  0
    7.5315   -2.3106   25.1091 C   0  0  0  0  0  0  0  0  0  0  0  0
    6.7276   -1.6248   21.6824 N   0  0  0  0  0  0  0  0  0  0  0  0
    7.3515   -0.6755   20.9311 N   0  0  0  0  0  0  0  0  0  0  0  0
    6.6551    0.0036   19.8965 C   0  0  0  0  0  0  0  0  0  0  0  0
    5.4398    0.6441   20.1633 C   0  0  0  0  0  0  0  0  0  0  0  0
    4.8119    1.3114   19.1086 C   0  0  0  0  0  0  0  0  0  0  0  0
    5.3990    1.2967   17.8374 C   0  0  0  0  0  0  0  0  0  0  0  0
    6.5576    0.6724   17.5738 N   0  0  0  0  0  0  0  0  0  0  0  0
    7.1662    0.0497   18.5884 C   0  0  0  0  0  0  0  0  0  0  0  0
  1  2  1  0
  2  3  2  0
  3  4  1  0
  4  5  2  0
  5  6  1  0
  6  7  1  0
  6  8  2  0
  8  9  1  0
  9 10  1  0
 10 11  1  0
 11 12  2  0
 12 13  1  0
 13 14  1  0
 14 15  1  0
 15 16  1  0
 16 17  1  0
 13 18  2  0
 18 19  1  0
 19 20  1  0
 20 21  2  0
 21 22  1  0
 22 23  2  0
 23 24  1  0
 24 25  2  0
  8  2  1  0
 19 11  1  0
 25 20  1  0
 17 14  1  0
M  END
>  <cnnaffinity>  (241) 
-6.25677

>  <filename>  (241) 
Fc1cccc(F)c1CCc1nc(C2CCC2)nn1-c1cccnc1

>  <enamine_id>  (241) 
PV-006898994617

$$$$

     RDKit          3D

 24 27  0  0  0  0  0  0  0  0999 V2000
   12.2408    2.2659   24.2477 C   0  0  0  0  0  0  0  0  0  0  0  0
   11.8485    1.5140   23.0289 C   0  0  0  0  0  0  0  0  0  0  0  0
   12.4855    0.4744   22.5840 N   0  0  0  0  0  0  0  0  0  0  0  0
   11.7666   -0.1055   21.5671 C   0  0  0  0  0  0  0  0  0  0  0  0
   10.5906    0.4808   21.2280 C   0  0  0  0  0  0  0  0  0  0  0  0
    9.4769   -0.0481   20.3787 C   0  0  0  0  0  0  0  0  0  0  0  0
    8.4363   -0.8092   21.1545 C   0  0  0  0  0  0  0  0  0  0  0  0
    8.6627   -1.6126   22.1743 N   0  0  0  0  0  0  0  0  0  0  0  0
    7.4300   -2.0847   22.4840 C   0  0  0  0  0  0  0  0  0  0  0  0
    7.2216   -3.0280   23.6423 C   0  0  1  0  0  0  0  0  0  0  0  0
    6.5027   -2.3565   24.8519 C   0  0  0  0  0  0  0  0  0  0  0  0
    6.0124   -3.3552   25.8759 C   0  0  0  0  0  0  0  0  0  0  0  0
    5.9918   -4.6737   25.6801 C   0  0  0  0  0  0  0  0  0  0  0  0
    6.4078   -5.3284   24.3827 C   0  0  0  0  0  0  0  0  0  0  0  0
    6.5118   -4.3340   23.2115 C   0  0  0  0  0  0  0  0  0  0  0  0
    6.4605   -1.6490   21.6965 N   0  0  0  0  0  0  0  0  0  0  0  0
    7.1154   -0.8429   20.8206 N   0  0  0  0  0  0  0  0  0  0  0  0
    6.4378   -0.1383   19.7908 C   0  0  0  0  0  0  0  0  0  0  0  0
    5.2700    0.5853   20.0564 C   0  0  0  0  0  0  0  0  0  0  0  0
    4.7194    1.3517   19.0254 C   0  0  0  0  0  0  0  0  0  0  0  0
    5.3384    1.3502   17.7683 C   0  0  0  0  0  0  0  0  0  0  0  0
    6.4364    0.6286   17.4971 N   0  0  0  0  0  0  0  0  0  0  0  0
    6.9621   -0.1007   18.4833 C   0  0  0  0  0  0  0  0  0  0  0  0
   10.4005    1.9178   22.1600 S   0  0  0  0  0  0  0  0  0  0  0  0
  1  2  1  0
  2  3  2  0
  3  4  1  0
  4  5  2  0
  5  6  1  0
  6  7  1  0
  7  8  2  0
  8  9  1  0
 10  9  1  6
 10 11  1  0
 11 12  1  0
 12 13  2  0
 13 14  1  0
 14 15  1  0
  9 16  2  0
 16 17  1  0
 17 18  1  0
 18 19  2  0
 19 20  1  0
 20 21  2  0
 21 22  1  0
 22 23  2  0
  5 24  1  0
 24  2  1  0
 17  7  1  0
 23 18  1  0
 15 10  1  0
M  END
>  <cnnaffinity>  (242) 
-6.25674

>  <filename>  (242) 
Cc1ncc(Cc2nc(C3CC=CCC3)nn2-c2cccnc2)s1

>  <enamine_id>  (242) 
PV-006921249394

$$$$

     RDKit          3D

 25 28  0  0  0  0  0  0  0  0999 V2000
   14.2186    5.2855   21.2395 F   0  0  0  0  0  0  0  0  0  0  0  0
   13.5088    4.2780   21.7660 C   0  0  0  0  0  0  0  0  0  0  0  0
   13.9282    3.7096   22.9636 C   0  0  0  0  0  0  0  0  0  0  0  0
   13.2010    2.6415   23.4881 C   0  0  0  0  0  0  0  0  0  0  0  0
   12.0054    2.2305   22.8830 C   0  0  0  0  0  0  0  0  0  0  0  0
   11.5898    2.8581   21.6976 C   0  0  0  0  0  0  0  0  0  0  0  0
   10.4375    2.6071   21.0267 O   0  0  0  0  0  0  0  0  0  0  0  0
    9.3818    1.8509   21.5839 C   0  0  0  0  0  0  0  0  0  0  0  0
    9.5737    0.4448   21.0250 C   0  0  0  0  0  0  0  0  0  0  0  0
    8.5832   -0.5587   21.4615 C   0  0  0  0  0  0  0  0  0  0  0  0
    8.7730   -1.3748   22.4733 N   0  0  0  0  0  0  0  0  0  0  0  0
    7.5994   -2.0418   22.5519 C   0  0  0  0  0  0  0  0  0  0  0  0
    7.3813   -3.0779   23.5977 C   0  0  0  0  0  0  0  0  0  0  0  0
    6.8377   -4.4337   23.0768 C   0  0  0  0  0  0  0  0  0  0  0  0
    5.3021   -4.2778   24.0510 S   0  0  0  0  0  0  0  0  0  0  0  0
    6.2075   -2.7797   24.5691 C   0  0  0  0  0  0  0  0  0  0  0  0
    6.6951   -1.6888   21.6586 N   0  0  0  0  0  0  0  0  0  0  0  0
    7.3407   -0.7395   20.9282 N   0  0  0  0  0  0  0  0  0  0  0  0
    6.6571   -0.0562   19.8752 C   0  0  0  0  0  0  0  0  0  0  0  0
    5.4501    0.5965   20.1392 C   0  0  0  0  0  0  0  0  0  0  0  0
    4.8370    1.2993   19.0970 C   0  0  0  0  0  0  0  0  0  0  0  0
    5.4369    1.3078   17.8329 C   0  0  0  0  0  0  0  0  0  0  0  0
    6.5753    0.6526   17.5635 N   0  0  0  0  0  0  0  0  0  0  0  0
    7.1615   -0.0161   18.5635 C   0  0  0  0  0  0  0  0  0  0  0  0
   12.3863    3.8388   21.0929 C   0  0  0  0  0  0  0  0  0  0  0  0
  1  2  1  0
  2  3  2  0
  3  4  1  0
  4  5  2  0
  5  6  1  0
  6  7  1  0
  7  8  1  0
  8  9  1  0
  9 10  1  0
 10 11  2  0
 11 12  1  0
 12 13  1  0
 13 14  1  0
 14 15  1  0
 15 16  1  0
 12 17  2  0
 17 18  1  0
 18 19  1  0
 19 20  2  0
 20 21  1  0
 21 22  2  0
 22 23  1  0
 23 24  2  0
  6 25  2  0
 25  2  1  0
 18 10  1  0
 24 19  1  0
 16 13  1  0
M  END
>  <cnnaffinity>  (243) 
-6.2557

>  <filename>  (243) 
Fc1cccc(OCCc2nc(C3CSC3)nn2-c2cccnc2)c1

>  <enamine_id>  (243) 
PV-006917810112

$$$$

     RDKit          3D

 26 29  0  0  0  0  0  0  0  0999 V2000
   10.7889   -0.0530   26.4013 O   0  0  0  0  0  0  0  0  0  0  0  0
   11.0905    0.4590   25.3809 C   0  0  0  0  0  0  0  0  0  0  0  0
   10.2914    1.0004   24.3212 C   0  0  0  0  0  0  0  0  0  0  0  0
   10.7203    1.7799   23.2726 C   0  0  0  0  0  0  0  0  0  0  0  0
    9.8778    1.8843   22.0159 C   0  0  0  0  0  0  0  0  0  0  0  0
   10.3960    0.8413   21.1804 O   0  0  0  0  0  0  0  0  0  0  0  0
    9.4750    0.1081   20.4236 C   0  0  0  0  0  0  0  0  0  0  0  0
    8.4924   -0.7010   21.2247 C   0  0  0  0  0  0  0  0  0  0  0  0
    8.7424   -1.4323   22.2922 N   0  0  0  0  0  0  0  0  0  0  0  0
    7.5284   -1.9850   22.5808 C   0  0  0  0  0  0  0  0  0  0  0  0
    7.3558   -2.9295   23.7320 C   0  0  0  0  0  0  0  0  0  0  0  0
    8.2217   -4.2062   23.6171 C   0  0  0  0  0  0  0  0  0  0  0  0
    8.3005   -4.7765   25.0459 C   0  0  0  0  0  0  0  0  0  0  0  0
    7.9956   -3.5953   26.0019 C   0  0  0  0  0  0  0  0  0  0  0  0
    7.7770   -2.3590   25.1071 C   0  0  0  0  0  0  0  0  0  0  0  0
    6.5581   -1.6307   21.7615 N   0  0  0  0  0  0  0  0  0  0  0  0
    7.1828   -0.8205   20.8687 N   0  0  0  0  0  0  0  0  0  0  0  0
    6.4863   -0.1535   19.8216 C   0  0  0  0  0  0  0  0  0  0  0  0
    5.3183    0.5685   20.0890 C   0  0  0  0  0  0  0  0  0  0  0  0
    4.7572    1.3212   19.0532 C   0  0  0  0  0  0  0  0  0  0  0  0
    5.3614    1.3065   17.7903 C   0  0  0  0  0  0  0  0  0  0  0  0
    6.4506    0.5737   17.5132 N   0  0  0  0  0  0  0  0  0  0  0  0
    6.9866   -0.1441   18.5043 C   0  0  0  0  0  0  0  0  0  0  0  0
   11.9976    2.3066   23.0889 C   0  0  0  0  0  0  0  0  0  0  0  0
   13.1428    1.4449   22.8196 C   0  0  0  0  0  0  0  0  0  0  0  0
   13.3916    1.0233   24.0800 N   0  0  0  0  0  0  0  0  0  0  0  0
  1  2  2  0
  2  3  1  0
  3  4  2  0
  4  5  1  0
  5  6  1  0
  6  7  1  0
  7  8  1  0
  8  9  2  0
  9 10  1  0
 10 11  1  0
 11 12  1  0
 12 13  1  0
 13 14  1  0
 14 15  1  0
 10 16  2  0
 16 17  1  0
 17 18  1  0
 18 19  2  0
 19 20  1  0
 20 21  2  0
 21 22  1  0
 22 23  2  0
  4 24  1  0
 24 25  2  0
 25 26  1  0
 26  2  1  0
 17  8  1  0
 23 18  1  0
 15 11  1  0
M  END
>  <cnnaffinity>  (244) 
-6.25524

>  <filename>  (244) 
O=c1cc(COCc2nc(C3CCCC3)nn2-c2cccnc2)cc[nH]1

>  <enamine_id>  (244) 
PV-006814627956

$$$$

     RDKit          3D

 23 26  0  0  0  0  0  0  0  0999 V2000
    7.9648   -4.7344   25.8846 C   0  0  0  0  0  0  0  0  0  0  0  0
    8.5014   -5.0706   24.7104 C   0  0  0  0  0  0  0  0  0  0  0  0
    8.4952   -4.1668   23.5096 C   0  0  0  0  0  0  0  0  0  0  0  0
    7.4660   -3.0190   23.6379 C   0  0  2  0  0  0  0  0  0  0  0  0
    7.6651   -2.0276   22.5390 C   0  0  0  0  0  0  0  0  0  0  0  0
    6.7308   -1.5915   21.7214 N   0  0  0  0  0  0  0  0  0  0  0  0
    7.3870   -0.6580   20.9704 N   0  0  0  0  0  0  0  0  0  0  0  0
    6.7042    0.0222   19.9085 C   0  0  0  0  0  0  0  0  0  0  0  0
    5.4775    0.6501   20.1641 C   0  0  0  0  0  0  0  0  0  0  0  0
    4.8341    1.3095   19.1141 C   0  0  0  0  0  0  0  0  0  0  0  0
    5.4264    1.3055   17.8477 C   0  0  0  0  0  0  0  0  0  0  0  0
    6.5866    0.6849   17.5841 N   0  0  0  0  0  0  0  0  0  0  0  0
    7.2088    0.0615   18.5943 C   0  0  0  0  0  0  0  0  0  0  0  0
    8.6717   -0.5784   21.4159 C   0  0  0  0  0  0  0  0  0  0  0  0
    9.6087    0.5420   21.1023 C   0  0  0  0  0  0  0  0  0  0  0  0
    9.1720    1.8064   21.7924 C   0  0  0  0  0  0  0  0  0  0  0  0
    9.1273    2.2972   23.0808 C   0  0  0  0  0  0  0  0  0  0  0  0
    8.4340    3.4822   23.1204 N   0  0  0  0  0  0  0  0  0  0  0  0
    8.0542    3.7079   21.8908 C   0  0  0  0  0  0  0  0  0  0  0  0
    8.4643    2.7138   21.0664 N   0  0  0  0  0  0  0  0  0  0  0  0
    8.8876   -1.4535   22.3683 N   0  0  0  0  0  0  0  0  0  0  0  0
    7.5757   -2.3725   25.0447 C   0  0  0  0  0  0  0  0  0  0  0  0
    7.2806   -3.4121   26.1383 C   0  0  0  0  0  0  0  0  0  0  0  0
  1  2  2  0
  2  3  1  0
  3  4  1  0
  4  5  1  6
  5  6  2  0
  6  7  1  0
  7  8  1  0
  8  9  2  0
  9 10  1  0
 10 11  2  0
 11 12  1  0
 12 13  2  0
  7 14  1  0
 14 15  1  0
 15 16  1  0
 16 17  2  0
 17 18  1  0
 18 19  2  0
 19 20  1  0
 14 21  2  0
  4 22  1  0
 22 23  1  0
 23  1  1  0
 21  5  1  0
 13  8  1  0
 20 16  1  0
M  END
>  <cnnaffinity>  (245) 
-6.2552

>  <filename>  (245) 
C1=CCC(c2nc(Cc3cnc[nH]3)n(-c3cccnc3)n2)CC1

>  <enamine_id>  (245) 
PV-006921192812

$$$$

     RDKit          3D

 28 31  0  0  0  0  0  0  0  0999 V2000
    8.7391    2.0059   26.9522 O   0  0  0  0  0  0  0  0  0  0  0  0
    8.7305    1.9854   25.7371 C   0  0  0  0  0  0  0  0  0  0  0  0
    7.5455    1.8048   24.9190 C   0  0  0  0  0  0  0  0  0  0  0  0
    7.6491    1.8463   23.5624 C   0  0  0  0  0  0  0  0  0  0  0  0
    8.9440    2.0693   22.9423 C   0  0  0  0  0  0  0  0  0  0  0  0
    9.0903    2.0104   21.4392 C   0  0  0  0  0  0  0  0  0  0  0  0
    9.5353    0.6030   20.9350 C   0  0  0  0  0  0  0  0  0  0  0  0
    8.6354   -0.5051   21.3889 C   0  0  0  0  0  0  0  0  0  0  0  0
    8.8614   -1.3154   22.4015 N   0  0  0  0  0  0  0  0  0  0  0  0
    7.6565   -1.9275   22.5869 C   0  0  0  0  0  0  0  0  0  0  0  0
    7.4076   -2.8538   23.7403 C   0  0  0  0  0  0  0  0  0  0  0  0
    7.2249   -2.0430   25.0732 C   0  0  0  0  0  0  0  0  0  0  0  0
    7.5607   -2.8698   26.3423 C   0  0  0  0  0  0  0  0  0  0  0  0
    7.3532   -4.3602   26.1276 C   0  0  0  0  0  0  0  0  0  0  0  0
    7.6290   -5.0270   27.2921 F   0  0  0  0  0  0  0  0  0  0  0  0
    6.0195   -4.5859   25.8577 F   0  0  0  0  0  0  0  0  0  0  0  0
    8.2001   -4.9407   24.9891 C   0  0  0  0  0  0  0  0  0  0  0  0
    8.5287   -3.9127   23.8761 C   0  0  0  0  0  0  0  0  0  0  0  0
    6.7180   -1.5692   21.7361 N   0  0  0  0  0  0  0  0  0  0  0  0
    7.3577   -0.6719   20.9362 N   0  0  0  0  0  0  0  0  0  0  0  0
    6.6591    0.0003   19.8978 C   0  0  0  0  0  0  0  0  0  0  0  0
    5.4441    0.6412   20.1587 C   0  0  0  0  0  0  0  0  0  0  0  0
    4.8125    1.3114   19.1064 C   0  0  0  0  0  0  0  0  0  0  0  0
    5.3986    1.2975   17.8355 C   0  0  0  0  0  0  0  0  0  0  0  0
    6.5532    0.6671   17.5731 N   0  0  0  0  0  0  0  0  0  0  0  0
    7.1646    0.0439   18.5861 C   0  0  0  0  0  0  0  0  0  0  0  0
   10.0284    2.2238   23.6477 N   0  0  0  0  0  0  0  0  0  0  0  0
    9.8943    2.1590   25.0022 N   0  0  0  0  0  0  0  0  0  0  0  0
  1  2  2  0
  2  3  1  0
  3  4  2  0
  4  5  1  0
  5  6  1  0
  6  7  1  0
  7  8  1  0
  8  9  2  0
  9 10  1  0
 10 11  1  0
 11 12  1  0
 12 13  1  0
 13 14  1  0
 14 15  1  0
 14 16  1  0
 14 17  1  0
 17 18  1  0
 10 19  2  0
 19 20  1  0
 20 21  1  0
 21 22  2  0
 22 23  1  0
 23 24  2  0
 24 25  1  0
 25 26  2  0
  5 27  2  0
 27 28  1  0
 28  2  1  0
 20  8  1  0
 26 21  1  0
 18 11  1  0
M  END
>  <cnnaffinity>  (246) 
-6.25429

>  <filename>  (246) 
O=c1ccc(CCc2nc(C3CCC(F)(F)CC3)nn2-c2cccnc2)n[nH]1

>  <enamine_id>  (246) 
PV-006918680941

$$$$

     RDKit          3D

 24 27  0  0  0  0  0  0  0  0999 V2000
    9.3913    7.0211   23.9918 C   0  0  0  0  0  0  0  0  0  0  0  0
    8.7146    5.7310   23.6625 C   0  0  0  0  0  0  0  0  0  0  0  0
    9.3464    4.6221   23.4380 N   0  0  0  0  0  0  0  0  0  0  0  0
    8.4628    3.5865   23.2159 C   0  0  0  0  0  0  0  0  0  0  0  0
    8.9562    2.2228   22.8515 C   0  0  0  0  0  0  0  0  0  0  0  0
    9.0344    2.0207   21.3289 C   0  0  0  0  0  0  0  0  0  0  0  0
    9.5246    0.6177   20.9436 C   0  0  0  0  0  0  0  0  0  0  0  0
    8.6211   -0.4671   21.4277 C   0  0  0  0  0  0  0  0  0  0  0  0
    8.8408   -1.2791   22.4371 N   0  0  0  0  0  0  0  0  0  0  0  0
    7.6619   -1.9500   22.5604 C   0  0  0  0  0  0  0  0  0  0  0  0
    7.4464   -2.9408   23.6512 C   0  0  0  0  0  0  0  0  0  0  0  0
    8.6106   -3.9461   23.9002 C   0  0  0  0  0  0  0  0  0  0  0  0
    8.8054   -3.3675   25.3193 C   0  0  0  0  0  0  0  0  0  0  0  0
    7.6345   -2.3856   25.0988 C   0  0  0  0  0  0  0  0  0  0  0  0
    6.7380   -1.6103   21.6886 N   0  0  0  0  0  0  0  0  0  0  0  0
    7.3602   -0.6619   20.9370 N   0  0  0  0  0  0  0  0  0  0  0  0
    6.6610    0.0136   19.9011 C   0  0  0  0  0  0  0  0  0  0  0  0
    5.4403    0.6473   20.1651 C   0  0  0  0  0  0  0  0  0  0  0  0
    4.8114    1.3116   19.1083 C   0  0  0  0  0  0  0  0  0  0  0  0
    5.4007    1.2962   17.8372 C   0  0  0  0  0  0  0  0  0  0  0  0
    6.5611    0.6753   17.5760 N   0  0  0  0  0  0  0  0  0  0  0  0
    7.1715    0.0573   18.5929 C   0  0  0  0  0  0  0  0  0  0  0  0
    7.1530    3.9273   23.2642 C   0  0  0  0  0  0  0  0  0  0  0  0
    6.9819    5.6019   23.6113 S   0  0  0  0  0  0  0  0  0  0  0  0
  1  2  1  0
  2  3  2  0
  3  4  1  0
  4  5  1  0
  5  6  1  0
  6  7  1  0
  7  8  1  0
  8  9  2  0
  9 10  1  0
 10 11  1  0
 11 12  1  0
 12 13  1  0
 13 14  1  0
 10 15  2  0
 15 16  1  0
 16 17  1  0
 17 18  2  0
 18 19  1  0
 19 20  2  0
 20 21  1  0
 21 22  2  0
  4 23  2  0
 23 24  1  0
 24  2  1  0
 16  8  1  0
 22 17  1  0
 14 11  1  0
M  END
>  <cnnaffinity>  (247) 
-6.254

>  <filename>  (247) 
Cc1nc(CCCc2nc(C3CCC3)nn2-c2cccnc2)cs1

>  <enamine_id>  (247) 
PV-007039368559

$$$$

     RDKit          3D

 23 26  0  0  0  0  0  0  0  0999 V2000
    4.8131    1.3078   19.1089 C   0  0  0  0  0  0  0  0  0  0  0  0
    5.4030    1.2931   17.8398 C   0  0  0  0  0  0  0  0  0  0  0  0
    6.5583    0.6623   17.5820 N   0  0  0  0  0  0  0  0  0  0  0  0
    7.1690    0.0397   18.5968 C   0  0  0  0  0  0  0  0  0  0  0  0
    6.6619   -0.0048   19.9079 C   0  0  0  0  0  0  0  0  0  0  0  0
    7.3605   -0.6747   20.9575 N   0  0  0  0  0  0  0  0  0  0  0  0
    6.7497   -1.6215   21.7242 N   0  0  0  0  0  0  0  0  0  0  0  0
    7.6881   -1.9645   22.5768 C   0  0  0  0  0  0  0  0  0  0  0  0
    7.4409   -2.9296   23.6854 C   0  0  0  0  0  0  0  0  0  0  0  0
    7.4060   -2.2503   25.0954 C   0  0  0  0  0  0  0  0  0  0  0  0
    8.8461   -3.2202   25.6569 S   0  0  0  0  0  0  0  0  0  0  0  0
    8.6288   -3.8911   23.9726 C   0  0  0  0  0  0  0  0  0  0  0  0
    8.8676   -1.3061   22.4306 N   0  0  0  0  0  0  0  0  0  0  0  0
    8.6289   -0.4832   21.4272 C   0  0  0  0  0  0  0  0  0  0  0  0
    9.5154    0.6177   20.9599 C   0  0  0  0  0  0  0  0  0  0  0  0
    9.0241    2.0099   21.4016 C   0  0  0  0  0  0  0  0  0  0  0  0
    8.8995    2.1629   22.9335 C   0  0  0  0  0  0  0  0  0  0  0  0
   10.2282    1.9795   23.6309 C   0  0  0  0  0  0  0  0  0  0  0  0
   10.5946    0.9030   24.3805 C   0  0  0  0  0  0  0  0  0  0  0  0
   12.2554    0.9423   24.8224 S   0  0  0  0  0  0  0  0  0  0  0  0
   12.4920    2.4248   23.9858 C   0  0  0  0  0  0  0  0  0  0  0  0
   11.3343    2.8746   23.4334 C   0  0  0  0  0  0  0  0  0  0  0  0
    5.4451    0.6378   20.1624 C   0  0  0  0  0  0  0  0  0  0  0  0
  1  2  2  0
  2  3  1  0
  3  4  2  0
  4  5  1  0
  5  6  1  0
  6  7  1  0
  7  8  2  0
  8  9  1  0
  9 10  1  0
 10 11  1  0
 11 12  1  0
  8 13  1  0
 13 14  2  0
 14 15  1  0
 15 16  1  0
 16 17  1  0
 17 18  1  0
 18 19  2  0
 19 20  1  0
 20 21  1  0
 21 22  2  0
  5 23  2  0
 23  1  1  0
 14  6  1  0
 22 18  1  0
 12  9  1  0
M  END
>  <cnnaffinity>  (248) 
-6.25191

>  <filename>  (248) 
c1cncc(-n2nc(C3CSC3)nc2CCCc2ccsc2)c1

>  <enamine_id>  (248) 
PV-007045057924

$$$$

     RDKit          3D

 26 29  0  0  0  0  0  0  0  0999 V2000
    6.2696    2.8774   22.9548 O   0  0  0  0  0  0  0  0  0  0  0  0
    7.0613    3.7932   23.1567 C   0  0  0  0  0  0  0  0  0  0  0  0
    6.6504    5.1664   23.4345 C   0  0  0  0  0  0  0  0  0  0  0  0
    7.5466    6.1695   23.6399 C   0  0  0  0  0  0  0  0  0  0  0  0
    8.9498    5.8834   23.5803 C   0  0  0  0  0  0  0  0  0  0  0  0
    9.3632    4.6116   23.3304 C   0  0  0  0  0  0  0  0  0  0  0  0
    8.4656    3.5768   23.1590 N   0  0  0  0  0  0  0  0  0  0  0  0
    8.9529    2.2370   22.8165 C   0  0  0  0  0  0  0  0  0  0  0  0
    9.0357    2.0208   21.3035 C   0  0  0  0  0  0  0  0  0  0  0  0
    9.5301    0.6096   20.9331 C   0  0  0  0  0  0  0  0  0  0  0  0
    8.6258   -0.4763   21.4183 C   0  0  0  0  0  0  0  0  0  0  0  0
    8.8443   -1.2819   22.4370 N   0  0  0  0  0  0  0  0  0  0  0  0
    7.6602   -1.9438   22.5682 C   0  0  0  0  0  0  0  0  0  0  0  0
    7.4403   -2.9279   23.6735 C   0  0  0  0  0  0  0  0  0  0  0  0
    7.4238   -2.2742   25.0737 C   0  0  0  0  0  0  0  0  0  0  0  0
    7.8120   -3.3906   26.0594 C   0  0  0  0  0  0  0  0  0  0  0  0
    8.4771   -4.5122   25.2261 C   0  0  0  0  0  0  0  0  0  0  0  0
    8.5252   -4.0179   23.7705 C   0  0  0  0  0  0  0  0  0  0  0  0
    6.7370   -1.6025   21.6970 N   0  0  0  0  0  0  0  0  0  0  0  0
    7.3624   -0.6648   20.9372 N   0  0  0  0  0  0  0  0  0  0  0  0
    6.6609    0.0098   19.9006 C   0  0  0  0  0  0  0  0  0  0  0  0
    5.4420    0.6462   20.1662 C   0  0  0  0  0  0  0  0  0  0  0  0
    4.8103    1.3105   19.1093 C   0  0  0  0  0  0  0  0  0  0  0  0
    5.4017    1.2950   17.8388 C   0  0  0  0  0  0  0  0  0  0  0  0
    6.5634    0.6759   17.5779 N   0  0  0  0  0  0  0  0  0  0  0  0
    7.1727    0.0571   18.5945 C   0  0  0  0  0  0  0  0  0  0  0  0
  1  2  2  0
  2  3  1  0
  3  4  2  0
  4  5  1  0
  5  6  2  0
  6  7  1  0
  7  8  1  0
  8  9  1  0
  9 10  1  0
 10 11  1  0
 11 12  2  0
 12 13  1  0
 13 14  1  0
 14 15  1  0
 15 16  1  0
 16 17  1  0
 17 18  1  0
 13 19  2  0
 19 20  1  0
 20 21  1  0
 21 22  2  0
 22 23  1  0
 23 24  2  0
 24 25  1  0
 25 26  2  0
  7  2  1  0
 20 11  1  0
 26 21  1  0
 18 14  1  0
M  END
>  <cnnaffinity>  (249) 
-6.25171

>  <filename>  (249) 
O=c1ccccn1CCCc1nc(C2CCCC2)nn1-c1cccnc1

>  <enamine_id>  (249) 
PV-006809569385

$$$$

     RDKit          3D

 23 25  0  0  0  0  0  0  0  0999 V2000
    6.1198   -1.2754   25.1456 C   0  0  0  0  0  0  0  0  0  0  0  0
    7.2366   -2.3122   25.0547 C   0  0  0  0  0  0  0  0  0  0  0  0
    7.2312   -3.0562   23.7027 C   0  0  0  0  0  0  0  0  0  0  0  0
    7.4450   -2.1356   22.5478 C   0  0  0  0  0  0  0  0  0  0  0  0
    6.5310   -1.7601   21.6758 N   0  0  0  0  0  0  0  0  0  0  0  0
    7.2102   -0.8929   20.8763 N   0  0  0  0  0  0  0  0  0  0  0  0
    6.5488   -0.1777   19.8351 C   0  0  0  0  0  0  0  0  0  0  0  0
    5.3935    0.5607   20.1094 C   0  0  0  0  0  0  0  0  0  0  0  0
    4.8235    1.3066   19.0740 C   0  0  0  0  0  0  0  0  0  0  0  0
    5.4120    1.2747   17.8046 C   0  0  0  0  0  0  0  0  0  0  0  0
    6.5043    0.5493   17.5242 N   0  0  0  0  0  0  0  0  0  0  0  0
    7.0546   -0.1548   18.5205 C   0  0  0  0  0  0  0  0  0  0  0  0
    8.4886   -0.7724   21.3391 C   0  0  0  0  0  0  0  0  0  0  0  0
    9.5428    0.1105   20.7514 C   0  0  0  0  0  0  0  0  0  0  0  0
   10.3479    0.8130   21.8311 C   0  0  0  0  0  0  0  0  0  0  0  0
    9.8338    2.0028   22.3986 C   0  0  0  0  0  0  0  0  0  0  0  0
    8.5190    2.5984   21.9389 C   0  0  0  0  0  0  0  0  0  0  0  0
   10.5739    2.6488   23.3928 C   0  0  0  0  0  0  0  0  0  0  0  0
   11.7847    2.1234   23.8377 C   0  0  0  0  0  0  0  0  0  0  0  0
   12.2589    0.9227   23.3125 C   0  0  0  0  0  0  0  0  0  0  0  0
   11.5274    0.2183   22.3468 C   0  0  0  0  0  0  0  0  0  0  0  0
   11.9950   -1.1686   21.9520 C   0  0  0  0  0  0  0  0  0  0  0  0
    8.6640   -1.5708   22.3711 N   0  0  0  0  0  0  0  0  0  0  0  0
  1  2  1  0
  2  3  1  0
  3  4  1  0
  4  5  2  0
  5  6  1  0
  6  7  1  0
  7  8  2  0
  8  9  1  0
  9 10  2  0
 10 11  1  0
 11 12  2  0
  6 13  1  0
 13 14  1  0
 14 15  1  0
 15 16  2  0
 16 17  1  0
 16 18  1  0
 18 19  2  0
 19 20  1  0
 20 21  2  0
 21 22  1  0
 13 23  2  0
 23  4  1  0
 12  7  1  0
 21 15  1  0
M  END
>  <cnnaffinity>  (250) 
-6.24941

>  <filename>  (250) 
CCCc1nc(Cc2c(C)cccc2C)n(-c2cccnc2)n1

>  <enamine_id>  (250) 
PV-006791661055

$$$$

     RDKit          3D

 25 28  0  0  0  0  0  0  0  0999 V2000
    6.3996    1.5288   25.5147 F   0  0  0  0  0  0  0  0  0  0  0  0
    7.5916    1.7826   24.9463 C   0  0  0  0  0  0  0  0  0  0  0  0
    8.7069    1.9635   25.7593 C   0  0  0  0  0  0  0  0  0  0  0  0
    9.9457    2.1499   25.1400 C   0  0  0  0  0  0  0  0  0  0  0  0
   10.0249    2.2211   23.7544 C   0  0  0  0  0  0  0  0  0  0  0  0
   11.2396    2.4076   23.1977 F   0  0  0  0  0  0  0  0  0  0  0  0
    8.9070    2.0797   22.9270 C   0  0  0  0  0  0  0  0  0  0  0  0
    9.0520    2.0145   21.4239 C   0  0  0  0  0  0  0  0  0  0  0  0
    9.5307    0.6163   20.9424 C   0  0  0  0  0  0  0  0  0  0  0  0
    8.6523   -0.4970   21.4021 C   0  0  0  0  0  0  0  0  0  0  0  0
    8.8826   -1.3120   22.4170 N   0  0  0  0  0  0  0  0  0  0  0  0
    7.6805   -1.9168   22.5960 C   0  0  0  0  0  0  0  0  0  0  0  0
    7.4048   -2.8063   23.7599 C   0  0  0  0  0  0  0  0  0  0  0  0
    6.4154   -2.2127   24.8213 C   0  0  0  0  0  0  0  0  0  0  0  0
    5.4265   -3.3643   24.5200 C   0  0  0  0  0  0  0  0  0  0  0  0
    6.4175   -3.9813   23.5037 C   0  0  0  0  0  0  0  0  0  0  0  0
    6.7480   -1.5698   21.7278 N   0  0  0  0  0  0  0  0  0  0  0  0
    7.3775   -0.6647   20.9391 N   0  0  0  0  0  0  0  0  0  0  0  0
    6.6622    0.0042   19.9040 C   0  0  0  0  0  0  0  0  0  0  0  0
    5.4437    0.6409   20.1677 C   0  0  0  0  0  0  0  0  0  0  0  0
    4.8147    1.3089   19.1114 C   0  0  0  0  0  0  0  0  0  0  0  0
    5.3998    1.2961   17.8387 C   0  0  0  0  0  0  0  0  0  0  0  0
    6.5583    0.6717   17.5765 N   0  0  0  0  0  0  0  0  0  0  0  0
    7.1675    0.0505   18.5933 C   0  0  0  0  0  0  0  0  0  0  0  0
    7.6778    1.8281   23.5574 C   0  0  0  0  0  0  0  0  0  0  0  0
  1  2  1  0
  2  3  2  0
  3  4  1  0
  4  5  2  0
  5  6  1  0
  5  7  1  0
  7  8  1  0
  8  9  1  0
  9 10  1  0
 10 11  2  0
 11 12  1  0
 12 13  1  0
 13 14  1  0
 14 15  1  0
 15 16  1  0
 12 17  2  0
 17 18  1  0
 18 19  1  0
 19 20  2  0
 20 21  1  0
 21 22  2  0
 22 23  1  0
 23 24  2  0
  7 25  2  0
 25  2  1  0
 18 10  1  0
 24 19  1  0
 16 13  1  0
M  END
>  <cnnaffinity>  (251) 
-6.24881

>  <filename>  (251) 
Fc1ccc(F)c(CCc2nc(C3CCC3)nn2-c2cccnc2)c1

>  <enamine_id>  (251) 
PV-006759711029

$$$$

     RDKit          3D

 23 26  0  0  0  0  0  0  0  0999 V2000
    7.7616   -4.5961   26.0173 C   0  0  0  0  0  0  0  0  0  0  0  0
    7.5450   -3.2892   26.1859 C   0  0  0  0  0  0  0  0  0  0  0  0
    7.5525   -2.2939   25.0501 C   0  0  0  0  0  0  0  0  0  0  0  0
    7.3972   -2.9704   23.6612 C   0  0  1  0  0  0  0  0  0  0  0  0
    7.6266   -1.9986   22.5470 C   0  0  0  0  0  0  0  0  0  0  0  0
    6.6711   -1.5558   21.7569 N   0  0  0  0  0  0  0  0  0  0  0  0
    7.3253   -0.6929   20.9355 N   0  0  0  0  0  0  0  0  0  0  0  0
    6.6488    0.0019   19.9005 C   0  0  0  0  0  0  0  0  0  0  0  0
    5.4357    0.6456   20.1664 C   0  0  0  0  0  0  0  0  0  0  0  0
    4.8122    1.3115   19.1089 C   0  0  0  0  0  0  0  0  0  0  0  0
    5.4019    1.2953   17.8372 C   0  0  0  0  0  0  0  0  0  0  0  0
    6.5600    0.6710   17.5773 N   0  0  0  0  0  0  0  0  0  0  0  0
    7.1660    0.0512   18.5936 C   0  0  0  0  0  0  0  0  0  0  0  0
    8.6258   -0.6261   21.3326 C   0  0  0  0  0  0  0  0  0  0  0  0
    9.6459    0.2280   20.6804 C   0  0  0  0  0  0  0  0  0  0  0  0
   10.6786    0.6908   21.6506 C   0  0  0  0  0  0  0  0  0  0  0  0
   10.4833    1.7470   22.3882 N   0  0  0  0  0  0  0  0  0  0  0  0
   11.5737    1.8288   23.2311 O   0  0  0  0  0  0  0  0  0  0  0  0
   12.4008    0.8067   22.9726 C   0  0  0  0  0  0  0  0  0  0  0  0
   11.9016    0.0448   21.9720 C   0  0  0  0  0  0  0  0  0  0  0  0
    8.8563   -1.4744   22.3068 N   0  0  0  0  0  0  0  0  0  0  0  0
    8.3251   -4.2006   23.5679 C   0  0  0  0  0  0  0  0  0  0  0  0
    7.9774   -5.2263   24.6603 C   0  0  0  0  0  0  0  0  0  0  0  0
  1  2  2  0
  2  3  1  0
  3  4  1  0
  4  5  1  6
  5  6  2  0
  6  7  1  0
  7  8  1  0
  8  9  2  0
  9 10  1  0
 10 11  2  0
 11 12  1  0
 12 13  2  0
  7 14  1  0
 14 15  1  0
 15 16  1  0
 16 17  2  0
 17 18  1  0
 18 19  1  0
 19 20  2  0
 14 21  2  0
  4 22  1  0
 22 23  1  0
 23  1  1  0
 21  5  1  0
 13  8  1  0
 20 16  1  0
M  END
>  <cnnaffinity>  (252) 
-6.24722

>  <filename>  (252) 
C1=CCC(c2nc(Cc3ccon3)n(-c3cccnc3)n2)CC1

>  <enamine_id>  (252) 
PV-007032787587

$$$$

     RDKit          3D

 23 25  0  0  0  0  0  0  0  0999 V2000
    7.3784   -4.6511   23.7682 C   0  0  0  0  0  0  0  0  0  0  0  0
    7.9348   -4.6517   22.4681 O   0  0  0  0  0  0  0  0  0  0  0  0
    8.7493   -3.5404   22.1348 C   0  0  0  0  0  0  0  0  0  0  0  0
    8.1141   -2.1766   21.9825 C   0  0  0  0  0  0  0  0  0  0  0  0
    7.6545   -1.8230   20.8000 N   0  0  0  0  0  0  0  0  0  0  0  0
    7.2475   -0.5514   20.9838 N   0  0  0  0  0  0  0  0  0  0  0  0
    6.5928    0.1112   19.9138 C   0  0  0  0  0  0  0  0  0  0  0  0
    5.3747    0.7602   20.1157 C   0  0  0  0  0  0  0  0  0  0  0  0
    4.7751    1.3741   19.0151 C   0  0  0  0  0  0  0  0  0  0  0  0
    5.4103    1.3173   17.7687 C   0  0  0  0  0  0  0  0  0  0  0  0
    6.5672    0.6581   17.5641 N   0  0  0  0  0  0  0  0  0  0  0  0
    7.1288    0.0522   18.6132 C   0  0  0  0  0  0  0  0  0  0  0  0
    7.5291   -0.1664   22.2701 C   0  0  0  0  0  0  0  0  0  0  0  0
    7.3317    1.1951   22.8841 C   0  0  0  0  0  0  0  0  0  0  0  0
    8.6134    1.7170   23.5155 C   0  0  0  0  0  0  0  0  0  0  0  0
    9.6612    2.2471   22.7489 C   0  0  0  0  0  0  0  0  0  0  0  0
    9.4853    2.3831   21.0423 Cl  0  0  0  0  0  0  0  0  0  0  0  0
   10.8726    2.6418   23.3352 C   0  0  0  0  0  0  0  0  0  0  0  0
   11.1110    2.4949   24.6412 N   0  0  0  0  0  0  0  0  0  0  0  0
   10.1328    1.9833   25.3998 C   0  0  0  0  0  0  0  0  0  0  0  0
    8.8849    1.6221   24.8811 C   0  0  0  0  0  0  0  0  0  0  0  0
    7.9378    1.1861   25.7246 F   0  0  0  0  0  0  0  0  0  0  0  0
    8.0719   -1.1889   22.9173 N   0  0  0  0  0  0  0  0  0  0  0  0
  1  2  1  0
  2  3  1  0
  3  4  1  0
  4  5  2  0
  5  6  1  0
  6  7  1  0
  7  8  2  0
  8  9  1  0
  9 10  2  0
 10 11  1  0
 11 12  2  0
  6 13  1  0
 13 14  1  0
 14 15  1  0
 15 16  2  0
 16 17  1  0
 16 18  1  0
 18 19  2  0
 19 20  1  0
 20 21  2  0
 21 22  1  0
 13 23  2  0
 23  4  1  0
 12  7  1  0
 21 15  1  0
M  END
>  <cnnaffinity>  (253) 
-6.24362

>  <filename>  (253) 
COCc1nc(Cc2c(F)cncc2Cl)n(-c2cccnc2)n1

>  <enamine_id>  (253) 
PV-006762920647

$$$$

     RDKit          3D

 26 29  0  0  0  0  0  0  0  0999 V2000
   13.4921    1.3931   23.8690 C   0  0  0  0  0  0  0  0  0  0  0  0
   12.4660    1.3167   22.9086 O   0  0  0  0  0  0  0  0  0  0  0  0
   11.2885    1.9481   23.1446 C   0  0  0  0  0  0  0  0  0  0  0  0
   11.0894    2.9065   24.1439 C   0  0  0  0  0  0  0  0  0  0  0  0
    9.8519    3.5499   24.2880 C   0  0  0  0  0  0  0  0  0  0  0  0
    8.7997    3.2187   23.4429 C   0  0  0  0  0  0  0  0  0  0  0  0
    8.9754    2.2355   22.4593 C   0  0  0  0  0  0  0  0  0  0  0  0
   10.2016    1.5948   22.2930 C   0  0  0  0  0  0  0  0  0  0  0  0
   10.4638    0.6468   21.3379 O   0  0  0  0  0  0  0  0  0  0  0  0
    9.4211    0.1324   20.5376 C   0  0  0  0  0  0  0  0  0  0  0  0
    8.4249   -0.7239   21.2647 C   0  0  0  0  0  0  0  0  0  0  0  0
    8.6495   -1.5092   22.2949 N   0  0  0  0  0  0  0  0  0  0  0  0
    7.4328   -2.0682   22.5328 C   0  0  0  0  0  0  0  0  0  0  0  0
    7.2274   -3.0066   23.6887 C   0  0  0  0  0  0  0  0  0  0  0  0
    6.1363   -4.0709   23.4816 C   0  0  0  0  0  0  0  0  0  0  0  0
    6.4346   -5.1603   24.5272 C   0  0  0  0  0  0  0  0  0  0  0  0
    7.9332   -5.0169   24.8935 C   0  0  0  0  0  0  0  0  0  0  0  0
    8.4692   -3.8467   24.0530 C   0  0  0  0  0  0  0  0  0  0  0  0
    6.4787   -1.6788   21.7017 N   0  0  0  0  0  0  0  0  0  0  0  0
    7.1275   -0.8449   20.8573 N   0  0  0  0  0  0  0  0  0  0  0  0
    6.4230   -0.1940   19.8036 C   0  0  0  0  0  0  0  0  0  0  0  0
    5.2646    0.5481   20.0646 C   0  0  0  0  0  0  0  0  0  0  0  0
    4.7398    1.3189   19.0215 C   0  0  0  0  0  0  0  0  0  0  0  0
    5.3483    1.2726   17.7595 C   0  0  0  0  0  0  0  0  0  0  0  0
    6.3948    0.4812   17.4813 N   0  0  0  0  0  0  0  0  0  0  0  0
    6.9066   -0.2418   18.4830 C   0  0  0  0  0  0  0  0  0  0  0  0
  1  2  1  0
  2  3  1  0
  3  4  2  0
  4  5  1  0
  5  6  2  0
  6  7  1  0
  7  8  2  0
  8  9  1  0
  9 10  1  0
 10 11  1  0
 11 12  2  0
 12 13  1  0
 13 14  1  0
 14 15  1  0
 15 16  1  0
 16 17  1  0
 17 18  1  0
 13 19  2  0
 19 20  1  0
 20 21  1  0
 21 22  2  0
 22 23  1  0
 23 24  2  0
 24 25  1  0
 25 26  2  0
  8  3  1  0
 20 11  1  0
 26 21  1  0
 18 14  1  0
M  END
>  <cnnaffinity>  (254) 
-6.2426

>  <filename>  (254) 
COc1ccccc1OCc1nc(C2CCCC2)nn1-c1cccnc1

>  <enamine_id>  (254) 
PV-007107844376

$$$$

     RDKit          3D

 24 27  0  0  0  0  0  0  0  0999 V2000
   12.8216   -1.9175   21.7176 Br  0  0  0  0  0  0  0  0  0  0  0  0
   11.4316   -1.0534   22.7020 C   0  0  0  0  0  0  0  0  0  0  0  0
   11.5740    0.2952   23.0539 C   0  0  0  0  0  0  0  0  0  0  0  0
   10.6303    0.9657   23.7400 N   0  0  0  0  0  0  0  0  0  0  0  0
    9.5190    0.3080   24.1138 C   0  0  0  0  0  0  0  0  0  0  0  0
    9.2939   -1.0421   23.8053 C   0  0  0  0  0  0  0  0  0  0  0  0
    8.1074   -1.6523   24.2086 N   0  0  0  0  0  0  0  0  0  0  0  0
    7.4131   -1.3054   25.3163 N   0  0  0  0  0  0  0  0  0  0  0  0
    6.3597   -2.0824   25.2370 C   0  0  0  0  0  0  0  0  0  0  0  0
    5.2678   -2.0465   26.2734 C   0  0  0  0  0  0  0  0  0  0  0  0
    4.6626   -0.7070   26.6922 C   0  0  0  0  0  0  0  0  0  0  0  0
    3.8090   -1.7303   25.9501 C   0  0  0  0  0  0  0  0  0  0  0  0
    6.3089   -2.9048   24.1200 N   0  0  0  0  0  0  0  0  0  0  0  0
    7.3815   -2.5739   23.4679 C   0  0  0  0  0  0  0  0  0  0  0  0
    7.6482   -3.0446   22.0634 C   0  0  0  0  0  0  0  0  0  0  0  0
    6.8580   -2.1876   21.0609 C   0  0  0  0  0  0  0  0  0  0  0  0
    7.3755   -0.7469   20.9981 C   0  0  0  0  0  0  0  0  0  0  0  0
    6.6597    0.0000   19.8936 C   0  0  0  0  0  0  0  0  0  0  0  0
    5.4478    0.6500   20.1459 C   0  0  0  0  0  0  0  0  0  0  0  0
    4.8259    1.3073   19.0838 C   0  0  0  0  0  0  0  0  0  0  0  0
    5.4199    1.3034   17.8167 C   0  0  0  0  0  0  0  0  0  0  0  0
    6.5817    0.6716   17.5642 N   0  0  0  0  0  0  0  0  0  0  0  0
    7.1846    0.0374   18.5869 C   0  0  0  0  0  0  0  0  0  0  0  0
   10.2724   -1.7416   23.0860 C   0  0  0  0  0  0  0  0  0  0  0  0
  1  2  1  0
  2  3  2  0
  3  4  1  0
  4  5  2  0
  5  6  1  0
  6  7  1  0
  7  8  1  0
  8  9  2  0
  9 10  1  0
 10 11  1  0
 11 12  1  0
  9 13  1  0
 13 14  2  0
 14 15  1  0
 15 16  1  0
 16 17  1  0
 17 18  1  0
 18 19  2  0
 19 20  1  0
 20 21  2  0
 21 22  1  0
 22 23  2  0
  6 24  2  0
 24  2  1  0
 14  7  1  0
 23 18  1  0
 12 10  1  0
M  END
>  <cnnaffinity>  (255) 
-6.24154

>  <filename>  (255) 
Brc1cncc(-n2nc(C3CC3)nc2CCCc2cccnc2)c1

>  <enamine_id>  (255) 
PV-006326519658

$$$$

     RDKit          3D

 25 28  0  0  0  0  0  0  0  0999 V2000
    7.4643   -5.2547   27.3739 C   0  0  0  0  0  0  0  0  0  0  0  0
    7.2842   -4.4568   26.0797 C   0  0  1  0  0  0  0  0  0  0  0  0
    7.4754   -2.9483   26.3103 C   0  0  0  0  0  0  0  0  0  0  0  0
    7.1802   -2.1093   25.0430 C   0  0  0  0  0  0  0  0  0  0  0  0
    7.4155   -2.8938   23.7085 C   0  0  1  0  0  0  0  0  0  0  0  0
    7.6661   -1.9578   22.5627 C   0  0  0  0  0  0  0  0  0  0  0  0
    6.7228   -1.5901   21.7215 N   0  0  0  0  0  0  0  0  0  0  0  0
    7.3535   -0.6778   20.9319 N   0  0  0  0  0  0  0  0  0  0  0  0
    6.6547   -0.0024   19.8950 C   0  0  0  0  0  0  0  0  0  0  0  0
    5.4409    0.6408   20.1600 C   0  0  0  0  0  0  0  0  0  0  0  0
    4.8114    1.3101   19.1066 C   0  0  0  0  0  0  0  0  0  0  0  0
    5.3982    1.2960   17.8358 C   0  0  0  0  0  0  0  0  0  0  0  0
    6.5538    0.6677   17.5739 N   0  0  0  0  0  0  0  0  0  0  0  0
    7.1644    0.0430   18.5858 C   0  0  0  0  0  0  0  0  0  0  0  0
    8.6319   -0.5151   21.3830 C   0  0  0  0  0  0  0  0  0  0  0  0
    9.5217    0.6114   20.9524 C   0  0  0  0  0  0  0  0  0  0  0  0
    9.0614    2.0052   21.4820 C   0  0  0  0  0  0  0  0  0  0  0  0
    8.9381    2.0748   22.9813 C   0  0  0  0  0  0  0  0  0  0  0  0
    7.8274    1.9407   23.6711 N   0  0  0  0  0  0  0  0  0  0  0  0
    8.2056    1.8811   24.9891 C   0  0  0  0  0  0  0  0  0  0  0  0
    9.5645    1.9897   25.1085 C   0  0  0  0  0  0  0  0  0  0  0  0
   10.0188    2.1234   23.8077 N   0  0  0  0  0  0  0  0  0  0  0  0
    8.8703   -1.3466   22.3738 N   0  0  0  0  0  0  0  0  0  0  0  0
    8.5582   -3.9174   23.8705 C   0  0  0  0  0  0  0  0  0  0  0  0
    8.2356   -4.9657   24.9629 C   0  0  0  0  0  0  0  0  0  0  0  0
  2  1  1  1
  2  3  1  0
  3  4  1  0
  4  5  1  0
  5  6  1  6
  6  7  2  0
  7  8  1  0
  8  9  1  0
  9 10  2  0
 10 11  1  0
 11 12  2  0
 12 13  1  0
 13 14  2  0
  8 15  1  0
 15 16  1  0
 16 17  1  0
 17 18  1  0
 18 19  2  0
 19 20  1  0
 20 21  2  0
 21 22  1  0
 15 23  2  0
  5 24  1  0
 24 25  1  0
 25  2  1  0
 23  6  1  0
 14  9  1  0
 22 18  1  0
M  END
>  <cnnaffinity>  (256) 
-6.24118

>  <filename>  (256) 
CC1CCC(c2nc(CCc3ncc[nH]3)n(-c3cccnc3)n2)CC1

>  <enamine_id>  (256) 
PV-006823747405

$$$$

     RDKit          3D

 28 31  0  0  0  0  0  0  0  0999 V2000
    6.3982    1.4670   25.2977 O   0  0  0  0  0  0  0  0  0  0  0  0
    7.5298    1.7224   24.9151 C   0  0  0  0  0  0  0  0  0  0  0  0
    8.7110    1.8952   25.7438 C   0  0  0  0  0  0  0  0  0  0  0  0
    9.9363    2.0852   25.1576 C   0  0  0  0  0  0  0  0  0  0  0  0
   10.0604    2.2120   23.7471 C   0  0  0  0  0  0  0  0  0  0  0  0
    8.9578    2.0802   22.9447 C   0  0  0  0  0  0  0  0  0  0  0  0
    9.0356    2.0138   21.4501 C   0  0  0  0  0  0  0  0  0  0  0  0
    9.5222    0.6193   20.9521 C   0  0  0  0  0  0  0  0  0  0  0  0
    8.6401   -0.4967   21.4046 C   0  0  0  0  0  0  0  0  0  0  0  0
    8.8673   -1.3256   22.4067 N   0  0  0  0  0  0  0  0  0  0  0  0
    7.6615   -1.9267   22.5858 C   0  0  0  0  0  0  0  0  0  0  0  0
    7.3873   -2.8266   23.7541 C   0  0  0  0  0  0  0  0  0  0  0  0
    6.5644   -4.0682   23.3437 C   0  0  0  0  0  0  0  0  0  0  0  0
    6.3856   -5.0481   24.5277 C   0  0  0  0  0  0  0  0  0  0  0  0
    6.3649   -4.3610   25.8990 C   0  0  0  0  0  0  0  0  0  0  0  0
    5.5929   -5.0917   26.7637 F   0  0  0  0  0  0  0  0  0  0  0  0
    7.6385   -4.3582   26.4243 F   0  0  0  0  0  0  0  0  0  0  0  0
    5.8528   -2.9309   25.8554 C   0  0  0  0  0  0  0  0  0  0  0  0
    6.6995   -2.0315   24.9209 C   0  0  0  0  0  0  0  0  0  0  0  0
    6.7241   -1.5580   21.7293 N   0  0  0  0  0  0  0  0  0  0  0  0
    7.3632   -0.6490   20.9532 N   0  0  0  0  0  0  0  0  0  0  0  0
    6.6631    0.0088   19.9050 C   0  0  0  0  0  0  0  0  0  0  0  0
    5.4422    0.6407   20.1638 C   0  0  0  0  0  0  0  0  0  0  0  0
    4.8121    1.3091   19.1096 C   0  0  0  0  0  0  0  0  0  0  0  0
    5.4005    1.2946   17.8404 C   0  0  0  0  0  0  0  0  0  0  0  0
    6.5555    0.6646   17.5803 N   0  0  0  0  0  0  0  0  0  0  0  0
    7.1684    0.0448   18.5941 C   0  0  0  0  0  0  0  0  0  0  0  0
    7.7436    1.8430   23.5496 N   0  0  0  0  0  0  0  0  0  0  0  0
  1  2  2  0
  2  3  1  0
  3  4  2  0
  4  5  1  0
  5  6  2  0
  6  7  1  0
  7  8  1  0
  8  9  1  0
  9 10  2  0
 10 11  1  0
 11 12  1  0
 12 13  1  0
 13 14  1  0
 14 15  1  0
 15 16  1  0
 15 17  1  0
 15 18  1  0
 18 19  1  0
 11 20  2  0
 20 21  1  0
 21 22  1  0
 22 23  2  0
 23 24  1  0
 24 25  2  0
 25 26  1  0
 26 27  2  0
  6 28  1  0
 28  2  1  0
 21  9  1  0
 27 22  1  0
 19 12  1  0
M  END
>  <cnnaffinity>  (257) 
-6.24088

>  <filename>  (257) 
O=c1cccc(CCc2nc(C3CCC(F)(F)CC3)nn2-c2cccnc2)[nH]1

>  <enamine_id>  (257) 
PV-007043673887

$$$$

     RDKit          3D

 26 28  0  0  0  0  0  0  0  0999 V2000
    7.4176   -4.5520   26.1829 C   0  0  0  0  0  0  0  0  0  0  0  0
    8.6282   -3.7906   25.6213 C   0  0  0  0  0  0  0  0  0  0  0  0
    9.9047   -4.6262   25.7527 C   0  0  0  0  0  0  0  0  0  0  0  0
    8.8094   -2.4269   26.3060 C   0  0  0  0  0  0  0  0  0  0  0  0
    8.5010   -3.6316   24.1937 O   0  0  0  0  0  0  0  0  0  0  0  0
    7.4016   -2.9085   23.6788 C   0  0  0  0  0  0  0  0  0  0  0  0
    7.7372   -1.9942   22.5185 C   0  0  0  0  0  0  0  0  0  0  0  0
    6.7742   -1.6387   21.6825 N   0  0  0  0  0  0  0  0  0  0  0  0
    7.3617   -0.6872   20.9185 N   0  0  0  0  0  0  0  0  0  0  0  0
    6.6467   -0.0364   19.8736 C   0  0  0  0  0  0  0  0  0  0  0  0
    5.4405    0.6174   20.1471 C   0  0  0  0  0  0  0  0  0  0  0  0
    4.8162    1.3020   19.0981 C   0  0  0  0  0  0  0  0  0  0  0  0
    5.4016    1.2945   17.8257 C   0  0  0  0  0  0  0  0  0  0  0  0
    6.5336    0.6298   17.5471 N   0  0  0  0  0  0  0  0  0  0  0  0
    7.1322   -0.0192   18.5526 C   0  0  0  0  0  0  0  0  0  0  0  0
    8.6328   -0.4742   21.3786 C   0  0  0  0  0  0  0  0  0  0  0  0
    9.5117    0.6535   20.9405 C   0  0  0  0  0  0  0  0  0  0  0  0
    9.2034    2.0098   21.6309 C   0  0  0  0  0  0  0  0  0  0  0  0
    9.4024    1.8715   23.1273 C   0  0  0  0  0  0  0  0  0  0  0  0
   10.7134    1.8004   23.6264 C   0  0  0  0  0  0  0  0  0  0  0  0
   10.9442    1.4009   24.9432 C   0  0  0  0  0  0  0  0  0  0  0  0
    9.8468    1.0607   25.7343 C   0  0  0  0  0  0  0  0  0  0  0  0
    8.5829    1.1553   25.3082 N   0  0  0  0  0  0  0  0  0  0  0  0
    8.3844    1.5675   24.0616 C   0  0  0  0  0  0  0  0  0  0  0  0
    6.7093    1.7000   23.5980 Cl  0  0  0  0  0  0  0  0  0  0  0  0
    8.9077   -1.3191   22.3523 N   0  0  0  0  0  0  0  0  0  0  0  0
  1  2  1  0
  2  3  1  0
  2  4  1  0
  2  5  1  0
  5  6  1  0
  6  7  1  0
  7  8  2  0
  8  9  1  0
  9 10  1  0
 10 11  2  0
 11 12  1  0
 12 13  2  0
 13 14  1  0
 14 15  2  0
  9 16  1  0
 16 17  1  0
 17 18  1  0
 18 19  1  0
 19 20  2  0
 20 21  1  0
 21 22  2  0
 22 23  1  0
 23 24  2  0
 24 25  1  0
 16 26  2  0
 26  7  1  0
 15 10  1  0
 24 19  1  0
M  END
>  <cnnaffinity>  (258) 
-6.23974

>  <filename>  (258) 
CC(C)(C)OCc1nc(CCc2cccnc2Cl)n(-c2cccnc2)n1

>  <enamine_id>  (258) 
PV-006968269169

$$$$

     RDKit          3D

 24 27  0  0  0  0  0  0  0  0999 V2000
    9.3808    1.9104   21.1626 C   0  0  0  0  0  0  0  0  0  0  0  0
    8.9544    1.9507   22.6316 C   0  0  2  0  0  0  0  0  0  0  0  0
    7.5576    1.2817   22.8112 C   0  0  0  0  0  0  0  0  0  0  0  0
    7.5360   -0.1230   22.2982 C   0  0  0  0  0  0  0  0  0  0  0  0
    8.0589   -1.1150   22.9899 N   0  0  0  0  0  0  0  0  0  0  0  0
    8.0970   -2.1398   22.1035 C   0  0  0  0  0  0  0  0  0  0  0  0
    8.6435   -3.4987   22.4678 C   0  0  0  0  0  0  0  0  0  0  0  0
    7.8644   -4.6847   21.8435 C   0  0  0  0  0  0  0  0  0  0  0  0
    8.2557   -5.9006   22.6983 C   0  0  0  0  0  0  0  0  0  0  0  0
    8.5663   -5.3578   24.1134 C   0  0  0  0  0  0  0  0  0  0  0  0
    8.6690   -3.8179   23.9887 C   0  0  0  0  0  0  0  0  0  0  0  0
    7.6534   -1.8388   20.8944 N   0  0  0  0  0  0  0  0  0  0  0  0
    7.2396   -0.5505   21.0327 N   0  0  0  0  0  0  0  0  0  0  0  0
    6.5768    0.0786   19.9389 C   0  0  0  0  0  0  0  0  0  0  0  0
    5.3686    0.7669   20.1106 C   0  0  0  0  0  0  0  0  0  0  0  0
    4.8025    1.3896   18.9941 C   0  0  0  0  0  0  0  0  0  0  0  0
    5.4590    1.3178   17.7637 C   0  0  0  0  0  0  0  0  0  0  0  0
    6.6003    0.6281   17.5861 N   0  0  0  0  0  0  0  0  0  0  0  0
    7.1265    0.0002   18.6444 C   0  0  0  0  0  0  0  0  0  0  0  0
    8.9913    3.3098   23.2021 N   0  0  0  0  0  0  0  0  0  0  0  0
    8.1920    4.3623   22.8232 C   0  0  0  0  0  0  0  0  0  0  0  0
    8.5123    5.4602   23.5834 C   0  0  0  0  0  0  0  0  0  0  0  0
    9.5693    5.0743   24.4525 C   0  0  0  0  0  0  0  0  0  0  0  0
    9.8486    3.7549   24.1902 C   0  0  0  0  0  0  0  0  0  0  0  0
  2  1  1  6
  2  3  1  0
  3  4  1  0
  4  5  2  0
  5  6  1  0
  6  7  1  0
  7  8  1  0
  8  9  1  0
  9 10  1  0
 10 11  1  0
  6 12  2  0
 12 13  1  0
 13 14  1  0
 14 15  2  0
 15 16  1  0
 16 17  2  0
 17 18  1  0
 18 19  2  0
  2 20  1  0
 20 21  1  0
 21 22  2  0
 22 23  1  0
 23 24  2  0
 13  4  1  0
 19 14  1  0
 24 20  1  0
 11  7  1  0
M  END
>  <cnnaffinity>  (259) 
-6.2397

>  <filename>  (259) 
CC(Cc1nc(C2CCCC2)nn1-c1cccnc1)n1cccc1

>  <enamine_id>  (259) 
PV-007168240775

$$$$

     RDKit          3D

 23 26  0  0  0  0  0  0  0  0999 V2000
   11.6128    2.7655   24.1446 C   0  0  0  0  0  0  0  0  0  0  0  0
   11.5452    1.7182   23.1466 N   0  0  0  0  0  0  0  0  0  0  0  0
   12.4434    0.7327   22.9334 C   0  0  0  0  0  0  0  0  0  0  0  0
   11.9166   -0.0603   21.9315 C   0  0  0  0  0  0  0  0  0  0  0  0
   10.6765    0.5305   21.6227 C   0  0  0  0  0  0  0  0  0  0  0  0
    9.6069    0.1197   20.6700 C   0  0  0  0  0  0  0  0  0  0  0  0
    8.5505   -0.6677   21.3520 C   0  0  0  0  0  0  0  0  0  0  0  0
    8.7438   -1.4765   22.3641 N   0  0  0  0  0  0  0  0  0  0  0  0
    7.5142   -2.0199   22.5692 C   0  0  0  0  0  0  0  0  0  0  0  0
    7.3235   -3.0162   23.6699 C   0  0  0  0  0  0  0  0  0  0  0  0
    7.7212   -2.4456   25.0480 C   0  0  0  0  0  0  0  0  0  0  0  0
    8.0080   -3.6646   25.9366 C   0  0  0  0  0  0  0  0  0  0  0  0
    8.3255   -4.8345   24.9751 C   0  0  0  0  0  0  0  0  0  0  0  0
    8.2372   -4.2581   23.5518 C   0  0  0  0  0  0  0  0  0  0  0  0
    6.5801   -1.6002   21.7420 N   0  0  0  0  0  0  0  0  0  0  0  0
    7.2525   -0.7357   20.9327 N   0  0  0  0  0  0  0  0  0  0  0  0
    6.5922   -0.0410   19.8819 C   0  0  0  0  0  0  0  0  0  0  0  0
    5.3869    0.6275   20.1285 C   0  0  0  0  0  0  0  0  0  0  0  0
    4.7878    1.3207   19.0753 C   0  0  0  0  0  0  0  0  0  0  0  0
    5.4002    1.3111   17.8167 C   0  0  0  0  0  0  0  0  0  0  0  0
    6.5447    0.6574   17.5659 N   0  0  0  0  0  0  0  0  0  0  0  0
    7.1248    0.0041   18.5788 C   0  0  0  0  0  0  0  0  0  0  0  0
   10.4654    1.6004   22.3684 N   0  0  0  0  0  0  0  0  0  0  0  0
  1  2  1  0
  2  3  1  0
  3  4  2  0
  4  5  1  0
  5  6  1  0
  6  7  1  0
  7  8  2  0
  8  9  1  0
  9 10  1  0
 10 11  1  0
 11 12  1  0
 12 13  1  0
 13 14  1  0
  9 15  2  0
 15 16  1  0
 16 17  1  0
 17 18  2  0
 18 19  1  0
 19 20  2  0
 20 21  1  0
 21 22  2  0
  5 23  2  0
 23  2  1  0
 16  7  1  0
 22 17  1  0
 14 10  1  0
M  END
>  <cnnaffinity>  (260) 
-6.23889

>  <filename>  (260) 
Cn1ccc(Cc2nc(C3CCCC3)nn2-c2cccnc2)n1

>  <enamine_id>  (260) 
PV-006882501266

$$$$

     RDKit          3D

 23 25  0  0  0  0  0  0  0  0999 V2000
    8.6577    2.7210   22.1326 C   0  0  0  0  0  0  0  0  0  0  0  0
   10.0130    2.1181   22.4400 C   0  0  0  0  0  0  0  0  0  0  0  0
   10.7915    2.6849   23.4552 C   0  0  0  0  0  0  0  0  0  0  0  0
   12.0263    2.1380   23.7959 C   0  0  0  0  0  0  0  0  0  0  0  0
   12.5036    1.0052   23.1446 C   0  0  0  0  0  0  0  0  0  0  0  0
   11.7339    0.3757   22.1611 C   0  0  0  0  0  0  0  0  0  0  0  0
   12.1877   -0.9671   21.6266 C   0  0  0  0  0  0  0  0  0  0  0  0
   10.5139    0.9791   21.7655 C   0  0  0  0  0  0  0  0  0  0  0  0
    9.6355    0.3009   20.7360 C   0  0  0  0  0  0  0  0  0  0  0  0
    8.6132   -0.5783   21.3659 C   0  0  0  0  0  0  0  0  0  0  0  0
    8.8364   -1.4236   22.3539 N   0  0  0  0  0  0  0  0  0  0  0  0
    7.6283   -2.0021   22.5448 C   0  0  0  0  0  0  0  0  0  0  0  0
    7.3946   -2.9993   23.6444 C   0  0  0  0  0  0  0  0  0  0  0  0
    6.8380   -4.3234   23.0899 C   0  0  0  0  0  0  0  0  0  0  0  0
    6.4786   -2.4083   24.7372 C   0  0  0  0  0  0  0  0  0  0  0  0
    6.6800   -1.5937   21.7192 N   0  0  0  0  0  0  0  0  0  0  0  0
    7.3241   -0.6915   20.9381 N   0  0  0  0  0  0  0  0  0  0  0  0
    6.6387   -0.0130   19.8946 C   0  0  0  0  0  0  0  0  0  0  0  0
    5.4274    0.6337   20.1570 C   0  0  0  0  0  0  0  0  0  0  0  0
    4.8040    1.3091   19.1044 C   0  0  0  0  0  0  0  0  0  0  0  0
    5.3960    1.2950   17.8351 C   0  0  0  0  0  0  0  0  0  0  0  0
    6.5469    0.6599   17.5708 N   0  0  0  0  0  0  0  0  0  0  0  0
    7.1526    0.0292   18.5838 C   0  0  0  0  0  0  0  0  0  0  0  0
  1  2  1  0
  2  3  2  0
  3  4  1  0
  4  5  2  0
  5  6  1  0
  6  7  1  0
  6  8  2  0
  8  9  1  0
  9 10  1  0
 10 11  2  0
 11 12  1  0
 12 13  1  0
 13 14  1  0
 13 15  1  0
 12 16  2  0
 16 17  1  0
 17 18  1  0
 18 19  2  0
 19 20  1  0
 20 21  2  0
 21 22  1  0
 22 23  2  0
  8  2  1  0
 17 10  1  0
 23 18  1  0
M  END
>  <cnnaffinity>  (261) 
-6.23602

>  <filename>  (261) 
Cc1cccc(C)c1Cc1nc(C(C)C)nn1-c1cccnc1

>  <enamine_id>  (261) 
PV-006940011545

$$$$

     RDKit          3D

 25 28  0  0  0  0  0  0  0  0999 V2000
    8.2820    0.6918   25.7283 C   0  0  0  0  0  0  0  0  0  0  0  0
    6.9164    1.0317   25.2190 C   0  0  0  0  0  0  0  0  0  0  0  0
    5.7243    0.8866   25.8966 C   0  0  0  0  0  0  0  0  0  0  0  0
    5.5757    0.3524   27.5365 Cl  0  0  0  0  0  0  0  0  0  0  0  0
    4.7063    1.1609   24.9668 C   0  0  0  0  0  0  0  0  0  0  0  0
    5.2257    1.4499   23.7790 N   0  0  0  0  0  0  0  0  0  0  0  0
    6.5617    1.4086   23.9509 N   0  0  0  0  0  0  0  0  0  0  0  0
    7.3851    1.4214   22.7476 C   0  0  0  0  0  0  0  0  0  0  0  0
    7.5047    0.0302   22.2172 C   0  0  0  0  0  0  0  0  0  0  0  0
    8.0654   -0.9173   22.9395 N   0  0  0  0  0  0  0  0  0  0  0  0
    8.0084   -2.0147   22.1470 C   0  0  0  0  0  0  0  0  0  0  0  0
    8.5258   -3.3741   22.5655 C   0  0  1  0  0  0  0  0  0  0  0  0
    9.6759   -3.2376   23.6010 C   0  0  0  0  0  0  0  0  0  0  0  0
    9.1793   -3.1341   25.0280 C   0  0  0  0  0  0  0  0  0  0  0  0
    7.9130   -3.3307   25.4018 C   0  0  0  0  0  0  0  0  0  0  0  0
    6.8439   -3.8185   24.4565 C   0  0  0  0  0  0  0  0  0  0  0  0
    7.4273   -4.3270   23.1283 C   0  0  0  0  0  0  0  0  0  0  0  0
    7.4866   -1.7933   20.9541 N   0  0  0  0  0  0  0  0  0  0  0  0
    7.1385   -0.4746   21.0048 N   0  0  0  0  0  0  0  0  0  0  0  0
    6.4969    0.1528   19.9044 C   0  0  0  0  0  0  0  0  0  0  0  0
    5.3609    0.9591   20.0627 C   0  0  0  0  0  0  0  0  0  0  0  0
    4.8062    1.5327   18.9120 C   0  0  0  0  0  0  0  0  0  0  0  0
    5.4127    1.3102   17.6733 C   0  0  0  0  0  0  0  0  0  0  0  0
    6.5048    0.5382   17.5233 N   0  0  0  0  0  0  0  0  0  0  0  0
    7.0180   -0.0364   18.6128 C   0  0  0  0  0  0  0  0  0  0  0  0
  1  2  1  0
  2  3  2  0
  3  4  1  0
  3  5  1  0
  5  6  2  0
  6  7  1  0
  7  8  1  0
  8  9  1  0
  9 10  2  0
 10 11  1  0
 12 11  1  1
 12 13  1  0
 13 14  1  0
 14 15  2  0
 15 16  1  0
 16 17  1  0
 11 18  2  0
 18 19  1  0
 19 20  1  0
 20 21  2  0
 21 22  1  0
 22 23  2  0
 23 24  1  0
 24 25  2  0
  7  2  1  0
 19  9  1  0
 25 20  1  0
 17 12  1  0
M  END
>  <cnnaffinity>  (262) 
-6.23568

>  <filename>  (262) 
Cc1c(Cl)cnn1Cc1nc(C2CC=CCC2)nn1-c1cccnc1

>  <enamine_id>  (262) 
PV-006738623406

$$$$

     RDKit          3D

 25 28  0  0  0  0  0  0  0  0999 V2000
    9.3392    7.0158   23.6945 C   0  0  0  0  0  0  0  0  0  0  0  0
    8.7295    5.6749   23.4761 C   0  0  0  0  0  0  0  0  0  0  0  0
    9.4500    4.5688   23.3543 N   0  0  0  0  0  0  0  0  0  0  0  0
    8.5483    3.5884   23.1276 N   0  0  0  0  0  0  0  0  0  0  0  0
    8.9879    2.2478   22.7825 C   0  0  0  0  0  0  0  0  0  0  0  0
    9.0812    2.0096   21.2699 C   0  0  0  0  0  0  0  0  0  0  0  0
    9.5450    0.5843   20.9225 C   0  0  0  0  0  0  0  0  0  0  0  0
    8.6262   -0.4825   21.4184 C   0  0  0  0  0  0  0  0  0  0  0  0
    8.8397   -1.2857   22.4362 N   0  0  0  0  0  0  0  0  0  0  0  0
    7.6492   -1.9319   22.5788 C   0  0  0  0  0  0  0  0  0  0  0  0
    7.4233   -2.8966   23.6891 C   0  0  0  0  0  0  0  0  0  0  0  0
    7.6156   -2.3132   25.1271 C   0  0  0  0  0  0  0  0  0  0  0  0
    8.7768   -3.3038   25.3695 C   0  0  0  0  0  0  0  0  0  0  0  0
    8.5770   -3.9103   23.9610 C   0  0  0  0  0  0  0  0  0  0  0  0
    6.7240   -1.5866   21.7084 N   0  0  0  0  0  0  0  0  0  0  0  0
    7.3588   -0.6603   20.9388 N   0  0  0  0  0  0  0  0  0  0  0  0
    6.6628    0.0132   19.9025 C   0  0  0  0  0  0  0  0  0  0  0  0
    5.4442    0.6501   20.1649 C   0  0  0  0  0  0  0  0  0  0  0  0
    4.8129    1.3145   19.1103 C   0  0  0  0  0  0  0  0  0  0  0  0
    5.4001    1.2980   17.8390 C   0  0  0  0  0  0  0  0  0  0  0  0
    6.5595    0.6758   17.5770 N   0  0  0  0  0  0  0  0  0  0  0  0
    7.1707    0.0567   18.5934 C   0  0  0  0  0  0  0  0  0  0  0  0
    7.2747    4.0629   23.0823 C   0  0  0  0  0  0  0  0  0  0  0  0
    6.0592    3.2625   22.7476 C   0  0  0  0  0  0  0  0  0  0  0  0
    7.3583    5.4118   23.3212 C   0  0  0  0  0  0  0  0  0  0  0  0
  1  2  1  0
  2  3  2  0
  3  4  1  0
  4  5  1  0
  5  6  1  0
  6  7  1  0
  7  8  1  0
  8  9  2  0
  9 10  1  0
 10 11  1  0
 11 12  1  0
 12 13  1  0
 13 14  1  0
 10 15  2  0
 15 16  1  0
 16 17  1  0
 17 18  2  0
 18 19  1  0
 19 20  2  0
 20 21  1  0
 21 22  2  0
  4 23  1  0
 23 24  1  0
 23 25  2  0
 25  2  1  0
 16  8  1  0
 22 17  1  0
 14 11  1  0
M  END
>  <cnnaffinity>  (263) 
-6.23565

>  <filename>  (263) 
Cc1cc(C)n(CCCc2nc(C3CCC3)nn2-c2cccnc2)n1

>  <enamine_id>  (263) 
PV-006821199723

$$$$

     RDKit          3D

 24 27  0  0  0  0  0  0  0  0999 V2000
    8.6719    6.3900   23.3987 C   0  0  0  0  0  0  0  0  0  0  0  0
    8.1296    5.2268   24.1665 C   0  0  0  0  0  0  0  0  0  0  0  0
    7.3088    5.4690   25.1947 N   0  0  0  0  0  0  0  0  0  0  0  0
    6.8196    4.4008   25.8263 C   0  0  0  0  0  0  0  0  0  0  0  0
    7.1292    3.1001   25.4615 C   0  0  0  0  0  0  0  0  0  0  0  0
    7.9881    2.9591   24.3720 C   0  0  0  0  0  0  0  0  0  0  0  0
    8.3315    1.6212   23.7881 C   0  0  0  0  0  0  0  0  0  0  0  0
    7.2449    1.1628   22.7816 C   0  0  0  0  0  0  0  0  0  0  0  0
    7.4947   -0.1893   22.2115 C   0  0  0  0  0  0  0  0  0  0  0  0
    8.0176   -1.1606   22.9239 N   0  0  0  0  0  0  0  0  0  0  0  0
    8.2154   -2.1386   22.0120 C   0  0  0  0  0  0  0  0  0  0  0  0
    8.9901   -3.3483   22.3564 C   0  0  0  0  0  0  0  0  0  0  0  0
   10.3395   -3.0437   23.0895 C   0  0  0  0  0  0  0  0  0  0  0  0
    9.9417   -4.0180   24.2141 C   0  0  0  0  0  0  0  0  0  0  0  0
    8.5571   -4.2195   23.5691 C   0  0  0  0  0  0  0  0  0  0  0  0
    7.8015   -1.8629   20.7903 N   0  0  0  0  0  0  0  0  0  0  0  0
    7.2946   -0.6082   20.9268 N   0  0  0  0  0  0  0  0  0  0  0  0
    6.6055    0.0307   19.8662 C   0  0  0  0  0  0  0  0  0  0  0  0
    5.3894    0.6868   20.0927 C   0  0  0  0  0  0  0  0  0  0  0  0
    4.7850    1.3376   19.0153 C   0  0  0  0  0  0  0  0  0  0  0  0
    5.4124    1.3118   17.7661 C   0  0  0  0  0  0  0  0  0  0  0  0
    6.5592    0.6465   17.5365 N   0  0  0  0  0  0  0  0  0  0  0  0
    7.1311    0.0093   18.5625 C   0  0  0  0  0  0  0  0  0  0  0  0
    8.4848    4.0166   23.7360 N   0  0  0  0  0  0  0  0  0  0  0  0
  1  2  1  0
  2  3  2  0
  3  4  1  0
  4  5  2  0
  5  6  1  0
  6  7  1  0
  7  8  1  0
  8  9  1  0
  9 10  2  0
 10 11  1  0
 11 12  1  0
 12 13  1  0
 13 14  1  0
 14 15  1  0
 11 16  2  0
 16 17  1  0
 17 18  1  0
 18 19  2  0
 19 20  1  0
 20 21  2  0
 21 22  1  0
 22 23  2  0
  6 24  2  0
 24  2  1  0
 17  9  1  0
 23 18  1  0
 15 12  1  0
M  END
>  <cnnaffinity>  (264) 
-6.23389

>  <filename>  (264) 
Cc1nccc(CCc2nc(C3CCC3)nn2-c2cccnc2)n1

>  <enamine_id>  (264) 
PV-006765314803

$$$$

     RDKit          3D

 24 27  0  0  0  0  0  0  0  0999 V2000
    8.4997    3.5984   22.0848 Br  0  0  0  0  0  0  0  0  0  0  0  0
    7.8226    3.9167   23.8478 C   0  0  0  0  0  0  0  0  0  0  0  0
    7.6513    5.1929   24.2390 N   0  0  0  0  0  0  0  0  0  0  0  0
    7.2158    5.4330   25.4835 C   0  0  0  0  0  0  0  0  0  0  0  0
    6.9883    4.4143   26.4104 C   0  0  0  0  0  0  0  0  0  0  0  0
    7.1583    3.0913   26.0222 C   0  0  0  0  0  0  0  0  0  0  0  0
    7.5358    2.8344   24.7044 C   0  0  0  0  0  0  0  0  0  0  0  0
    7.6483    1.4099   24.2367 C   0  0  0  0  0  0  0  0  0  0  0  0
    6.7026    1.1147   23.0541 C   0  0  0  0  0  0  0  0  0  0  0  0
    7.1053   -0.1882   22.4378 C   0  0  0  0  0  0  0  0  0  0  0  0
    7.6284   -1.1418   23.1495 N   0  0  0  0  0  0  0  0  0  0  0  0
    8.0843   -2.0247   22.1958 C   0  0  0  0  0  0  0  0  0  0  0  0
    8.9216   -3.2152   22.5751 C   0  0  0  0  0  0  0  0  0  0  0  0
    8.4905   -4.0846   23.7643 C   0  0  0  0  0  0  0  0  0  0  0  0
    9.8396   -3.8482   24.4356 C   0  0  0  0  0  0  0  0  0  0  0  0
   10.2349   -2.8965   23.3140 C   0  0  0  0  0  0  0  0  0  0  0  0
    7.8132   -1.6959   20.9526 N   0  0  0  0  0  0  0  0  0  0  0  0
    7.1475   -0.5226   21.0860 N   0  0  0  0  0  0  0  0  0  0  0  0
    6.5777    0.1654   20.0007 C   0  0  0  0  0  0  0  0  0  0  0  0
    5.5181    1.0732   20.1431 C   0  0  0  0  0  0  0  0  0  0  0  0
    4.9693    1.6266   18.9794 C   0  0  0  0  0  0  0  0  0  0  0  0
    5.4937    1.2871   17.7252 C   0  0  0  0  0  0  0  0  0  0  0  0
    6.5344    0.4473   17.5844 N   0  0  0  0  0  0  0  0  0  0  0  0
    7.0562   -0.0955   18.7019 C   0  0  0  0  0  0  0  0  0  0  0  0
  1  2  1  0
  2  3  2  0
  3  4  1  0
  4  5  2  0
  5  6  1  0
  6  7  2  0
  7  8  1  0
  8  9  1  0
  9 10  1  0
 10 11  2  0
 11 12  1  0
 12 13  1  0
 13 14  1  0
 14 15  1  0
 15 16  1  0
 12 17  2  0
 17 18  1  0
 18 19  1  0
 19 20  2  0
 20 21  1  0
 21 22  2  0
 22 23  1  0
 23 24  2  0
  7  2  1  0
 18 10  1  0
 24 19  1  0
 16 13  1  0
M  END
>  <cnnaffinity>  (265) 
-6.2321

>  <filename>  (265) 
Brc1ncccc1CCc1nc(C2CCC2)nn1-c1cccnc1

>  <enamine_id>  (265) 
PV-006950388307

$$$$

     RDKit          3D

 25 28  0  0  0  0  0  0  0  0999 V2000
   12.1140    0.4814   22.9650 C   0  0  0  0  0  0  0  0  0  0  0  0
   11.0086    1.4744   22.9246 C   0  0  0  0  0  0  0  0  0  0  0  0
   10.8595    2.4352   23.8017 N   0  0  0  0  0  0  0  0  0  0  0  0
    9.6670    3.0574   23.4608 O   0  0  0  0  0  0  0  0  0  0  0  0
    9.1405    2.4580   22.3843 C   0  0  0  0  0  0  0  0  0  0  0  0
    7.8088    2.8851   21.8805 C   0  0  0  0  0  0  0  0  0  0  0  0
    9.9442    1.4419   21.9794 C   0  0  0  0  0  0  0  0  0  0  0  0
    9.6489    0.3879   20.9354 C   0  0  0  0  0  0  0  0  0  0  0  0
    8.6217   -0.6200   21.3582 C   0  0  0  0  0  0  0  0  0  0  0  0
    8.8259   -1.5103   22.3094 N   0  0  0  0  0  0  0  0  0  0  0  0
    7.6063   -2.0817   22.4706 C   0  0  0  0  0  0  0  0  0  0  0  0
    7.4277   -3.1569   23.5094 C   0  0  1  0  0  0  0  0  0  0  0  0
    6.0125   -3.1692   24.1322 C   0  0  0  0  0  0  0  0  0  0  0  0
    4.9972   -3.8489   23.2438 C   0  0  0  0  0  0  0  0  0  0  0  0
    5.3266   -4.6381   22.2154 C   0  0  0  0  0  0  0  0  0  0  0  0
    6.7546   -4.9262   21.8128 C   0  0  0  0  0  0  0  0  0  0  0  0
    7.7590   -4.5505   22.9165 C   0  0  0  0  0  0  0  0  0  0  0  0
    6.6748   -1.6348   21.6491 N   0  0  0  0  0  0  0  0  0  0  0  0
    7.3364   -0.7049   20.9121 N   0  0  0  0  0  0  0  0  0  0  0  0
    6.6492   -0.0197   19.8694 C   0  0  0  0  0  0  0  0  0  0  0  0
    5.4367    0.6209   20.1418 C   0  0  0  0  0  0  0  0  0  0  0  0
    4.8039    1.3069   19.1013 C   0  0  0  0  0  0  0  0  0  0  0  0
    5.3975    1.3032   17.8329 C   0  0  0  0  0  0  0  0  0  0  0  0
    6.5414    0.6576   17.5528 N   0  0  0  0  0  0  0  0  0  0  0  0
    7.1526    0.0163   18.5577 C   0  0  0  0  0  0  0  0  0  0  0  0
  1  2  1  0
  2  3  2  0
  3  4  1  0
  4  5  1  0
  5  6  1  0
  5  7  2  0
  7  8  1  0
  8  9  1  0
  9 10  2  0
 10 11  1  0
 12 11  1  6
 12 13  1  0
 13 14  1  0
 14 15  2  0
 15 16  1  0
 16 17  1  0
 11 18  2  0
 18 19  1  0
 19 20  1  0
 20 21  2  0
 21 22  1  0
 22 23  2  0
 23 24  1  0
 24 25  2  0
  7  2  1  0
 19  9  1  0
 25 20  1  0
 17 12  1  0
M  END
>  <cnnaffinity>  (266) 
-6.23175

>  <filename>  (266) 
Cc1noc(C)c1Cc1nc(C2CC=CCC2)nn1-c1cccnc1

>  <enamine_id>  (266) 
PV-006841724156

$$$$

     RDKit          3D

 25 28  0  0  0  0  0  0  0  0999 V2000
    8.1111    2.4641   21.7642 C   0  0  0  0  0  0  0  0  0  0  0  0
    9.4871    1.8107   21.8836 C   0  0  2  0  0  0  0  0  0  0  0  0
    9.5699    0.5298   20.9929 C   0  0  0  0  0  0  0  0  0  0  0  0
    8.6362   -0.5686   21.3741 C   0  0  0  0  0  0  0  0  0  0  0  0
    8.8876   -1.4863   22.2879 N   0  0  0  0  0  0  0  0  0  0  0  0
    7.6837   -2.0839   22.4696 C   0  0  0  0  0  0  0  0  0  0  0  0
    7.4236   -3.0612   23.5609 C   0  0  0  0  0  0  0  0  0  0  0  0
    8.6618   -3.8789   23.9958 C   0  0  0  0  0  0  0  0  0  0  0  0
    8.6161   -3.1776   25.6808 S   0  0  0  0  0  0  0  0  0  0  0  0
    7.1515   -2.3857   24.9424 C   0  0  0  0  0  0  0  0  0  0  0  0
    6.7224   -1.6524   21.6803 N   0  0  0  0  0  0  0  0  0  0  0  0
    7.3470   -0.6994   20.9316 N   0  0  0  0  0  0  0  0  0  0  0  0
    6.6467   -0.0327   19.8839 C   0  0  0  0  0  0  0  0  0  0  0  0
    5.4304    0.6114   20.1445 C   0  0  0  0  0  0  0  0  0  0  0  0
    4.8053    1.3001   19.0991 C   0  0  0  0  0  0  0  0  0  0  0  0
    5.4056    1.2986   17.8361 C   0  0  0  0  0  0  0  0  0  0  0  0
    6.5461    0.6439   17.5629 N   0  0  0  0  0  0  0  0  0  0  0  0
    7.1488   -0.0046   18.5694 C   0  0  0  0  0  0  0  0  0  0  0  0
    9.8924    1.5396   23.3314 C   0  0  0  0  0  0  0  0  0  0  0  0
    8.9678    1.1761   24.3265 C   0  0  0  0  0  0  0  0  0  0  0  0
    9.4070    0.8065   25.5988 C   0  0  0  0  0  0  0  0  0  0  0  0
   10.7698    0.7360   25.8942 C   0  0  0  0  0  0  0  0  0  0  0  0
   11.6771    1.0883   24.8982 C   0  0  0  0  0  0  0  0  0  0  0  0
   12.9908    0.9579   25.1454 F   0  0  0  0  0  0  0  0  0  0  0  0
   11.2629    1.5315   23.6473 C   0  0  0  0  0  0  0  0  0  0  0  0
  2  1  1  1
  2  3  1  0
  3  4  1  0
  4  5  2  0
  5  6  1  0
  6  7  1  0
  7  8  1  0
  8  9  1  0
  9 10  1  0
  6 11  2  0
 11 12  1  0
 12 13  1  0
 13 14  2  0
 14 15  1  0
 15 16  2  0
 16 17  1  0
 17 18  2  0
  2 19  1  0
 19 20  2  0
 20 21  1  0
 21 22  2  0
 22 23  1  0
 23 24  1  0
 23 25  2  0
 12  4  1  0
 18 13  1  0
 25 19  1  0
 10  7  1  0
M  END
>  <cnnaffinity>  (267) 
-6.22902

>  <filename>  (267) 
CC(Cc1nc(C2CSC2)nn1-c1cccnc1)c1cccc(F)c1

>  <enamine_id>  (267) 
PV-006968332367

$$$$

     RDKit          3D

 26 29  0  0  0  0  0  0  0  0999 V2000
    5.4284   -5.5616   26.3890 F   0  0  0  0  0  0  0  0  0  0  0  0
    5.6046   -4.6797   25.3567 C   0  0  0  0  0  0  0  0  0  0  0  0
    4.3488   -4.4359   24.8488 F   0  0  0  0  0  0  0  0  0  0  0  0
    6.1804   -3.3747   25.8856 C   0  0  0  0  0  0  0  0  0  0  0  0
    6.4707   -2.3849   24.7496 C   0  0  0  0  0  0  0  0  0  0  0  0
    7.3433   -3.0240   23.6337 C   0  0  0  0  0  0  0  0  0  0  0  0
    7.6253   -2.0408   22.5362 C   0  0  0  0  0  0  0  0  0  0  0  0
    6.7362   -1.6804   21.6254 N   0  0  0  0  0  0  0  0  0  0  0  0
    7.3908   -0.7246   20.9110 N   0  0  0  0  0  0  0  0  0  0  0  0
    6.6928   -0.0351   19.8688 C   0  0  0  0  0  0  0  0  0  0  0  0
    5.4678    0.5915   20.1327 C   0  0  0  0  0  0  0  0  0  0  0  0
    4.8449    1.3068   19.1031 C   0  0  0  0  0  0  0  0  0  0  0  0
    5.4499    1.3268   17.8407 C   0  0  0  0  0  0  0  0  0  0  0  0
    6.5864    0.6720   17.5606 N   0  0  0  0  0  0  0  0  0  0  0  0
    7.1873    0.0020   18.5525 C   0  0  0  0  0  0  0  0  0  0  0  0
    8.6344   -0.5457   21.4581 C   0  0  0  0  0  0  0  0  0  0  0  0
    9.6349    0.5161   21.1194 C   0  0  0  0  0  0  0  0  0  0  0  0
    9.7094    1.6413   22.1939 C   0  0  0  0  0  0  0  0  0  0  0  0
    8.4340    2.4141   22.3142 C   0  0  0  0  0  0  0  0  0  0  0  0
    8.1486    3.5263   21.6993 N   0  0  0  0  0  0  0  0  0  0  0  0
    6.8360    3.7931   21.9925 C   0  0  0  0  0  0  0  0  0  0  0  0
    6.3163    2.8258   22.8120 C   0  0  0  0  0  0  0  0  0  0  0  0
    7.3624    1.9383   23.0051 N   0  0  0  0  0  0  0  0  0  0  0  0
    8.7998   -1.3700   22.4760 N   0  0  0  0  0  0  0  0  0  0  0  0
    6.7345   -4.3475   23.1140 C   0  0  0  0  0  0  0  0  0  0  0  0
    6.4537   -5.3216   24.2689 C   0  0  0  0  0  0  0  0  0  0  0  0
  1  2  1  0
  2  3  1  0
  2  4  1  0
  4  5  1  0
  5  6  1  0
  6  7  1  0
  7  8  2  0
  8  9  1  0
  9 10  1  0
 10 11  2  0
 11 12  1  0
 12 13  2  0
 13 14  1  0
 14 15  2  0
  9 16  1  0
 16 17  1  0
 17 18  1  0
 18 19  1  0
 19 20  2  0
 20 21  1  0
 21 22  2  0
 22 23  1  0
 16 24  2  0
  6 25  1  0
 25 26  1  0
 26  2  1  0
 24  7  1  0
 15 10  1  0
 23 19  1  0
M  END
>  <cnnaffinity>  (268) 
-6.22738

>  <filename>  (268) 
FC1(F)CCC(c2nc(CCc3ncc[nH]3)n(-c3cccnc3)n2)CC1

>  <enamine_id>  (268) 
PV-006865905996

$$$$

     RDKit          3D

 27 30  0  0  0  0  0  0  0  0999 V2000
    9.5255    0.8903   25.9121 Cl  0  0  0  0  0  0  0  0  0  0  0  0
    8.9567    2.4445   25.3671 C   0  0  0  0  0  0  0  0  0  0  0  0
    8.6039    3.3792   26.3382 C   0  0  0  0  0  0  0  0  0  0  0  0
    8.1578    4.6501   25.9743 C   0  0  0  0  0  0  0  0  0  0  0  0
    8.0464    4.9686   24.6225 C   0  0  0  0  0  0  0  0  0  0  0  0
    8.3846    4.0320   23.6378 C   0  0  0  0  0  0  0  0  0  0  0  0
    8.8485    2.7528   23.9885 C   0  0  0  0  0  0  0  0  0  0  0  0
    9.2039    1.7895   23.1074 O   0  0  0  0  0  0  0  0  0  0  0  0
    9.0948    1.9824   21.7014 C   0  0  0  0  0  0  0  0  0  0  0  0
    9.4924    0.6626   21.0387 C   0  0  0  0  0  0  0  0  0  0  0  0
    8.6069   -0.4562   21.4492 C   0  0  0  0  0  0  0  0  0  0  0  0
    8.8391   -1.2975   22.4328 N   0  0  0  0  0  0  0  0  0  0  0  0
    7.6579   -1.9618   22.5586 C   0  0  0  0  0  0  0  0  0  0  0  0
    7.3930   -2.9098   23.6983 C   0  0  0  0  0  0  0  0  0  0  0  0
    8.6298   -3.7894   24.0481 C   0  0  0  0  0  0  0  0  0  0  0  0
    9.4217   -3.2046   25.2224 C   0  0  0  0  0  0  0  0  0  0  0  0
    8.6394   -3.0980   26.4069 O   0  0  0  0  0  0  0  0  0  0  0  0
    7.2406   -2.8840   26.2479 C   0  0  0  0  0  0  0  0  0  0  0  0
    6.9074   -2.1220   24.9645 C   0  0  0  0  0  0  0  0  0  0  0  0
    6.7345   -1.6212   21.6846 N   0  0  0  0  0  0  0  0  0  0  0  0
    7.3561   -0.6649   20.9383 N   0  0  0  0  0  0  0  0  0  0  0  0
    6.6554    0.0090   19.8985 C   0  0  0  0  0  0  0  0  0  0  0  0
    5.4369    0.6438   20.1650 C   0  0  0  0  0  0  0  0  0  0  0  0
    4.8126    1.3109   19.1070 C   0  0  0  0  0  0  0  0  0  0  0  0
    5.3998    1.2972   17.8350 C   0  0  0  0  0  0  0  0  0  0  0  0
    6.5560    0.6698   17.5702 N   0  0  0  0  0  0  0  0  0  0  0  0
    7.1636    0.0490   18.5876 C   0  0  0  0  0  0  0  0  0  0  0  0
  1  2  1  0
  2  3  2  0
  3  4  1  0
  4  5  2  0
  5  6  1  0
  6  7  2  0
  7  8  1  0
  8  9  1  0
  9 10  1  0
 10 11  1  0
 11 12  2  0
 12 13  1  0
 13 14  1  0
 14 15  1  0
 15 16  1  0
 16 17  1  0
 17 18  1  0
 18 19  1  0
 13 20  2  0
 20 21  1  0
 21 22  1  0
 22 23  2  0
 23 24  1  0
 24 25  2  0
 25 26  1  0
 26 27  2  0
  7  2  1  0
 21 11  1  0
 27 22  1  0
 19 14  1  0
M  END
>  <cnnaffinity>  (269) 
-6.22704

>  <filename>  (269) 
Clc1ccccc1OCCc1nc(C2CCOCC2)nn1-c1cccnc1

>  <enamine_id>  (269) 
PV-006972397044

$$$$

     RDKit          3D

 25 28  0  0  0  0  0  0  0  0999 V2000
    9.0885    1.6516   20.9683 C   0  0  0  0  0  0  0  0  0  0  0  0
    8.6042    1.0200   22.2785 C   0  0  1  0  0  0  0  0  0  0  0  0
    7.6438    1.9799   23.0439 C   0  0  0  0  0  0  0  0  0  0  0  0
    7.2687    1.5157   24.4212 C   0  0  0  0  0  0  0  0  0  0  0  0
    7.8380    1.7284   25.6532 C   0  0  0  0  0  0  0  0  0  0  0  0
    7.1798    1.0258   26.6334 N   0  0  0  0  0  0  0  0  0  0  0  0
    6.2233    0.3845   26.0195 C   0  0  0  0  0  0  0  0  0  0  0  0
    6.2165    0.6620   24.6855 N   0  0  0  0  0  0  0  0  0  0  0  0
    8.0466   -0.3699   22.1214 C   0  0  0  0  0  0  0  0  0  0  0  0
    8.2398   -1.3439   22.9882 N   0  0  0  0  0  0  0  0  0  0  0  0
    7.5111   -2.3718   22.4797 C   0  0  0  0  0  0  0  0  0  0  0  0
    7.3350   -3.6535   23.2426 C   0  0  1  0  0  0  0  0  0  0  0  0
    8.6845   -4.4198   23.3441 C   0  0  0  0  0  0  0  0  0  0  0  0
    8.7891   -5.3598   24.5198 C   0  0  0  0  0  0  0  0  0  0  0  0
    7.8443   -5.4939   25.4520 C   0  0  0  0  0  0  0  0  0  0  0  0
    6.5450   -4.7183   25.4093 C   0  0  0  0  0  0  0  0  0  0  0  0
    6.7194   -3.3983   24.6429 C   0  0  0  0  0  0  0  0  0  0  0  0
    6.9307   -2.1210   21.3261 N   0  0  0  0  0  0  0  0  0  0  0  0
    7.2684   -0.8226   21.0922 N   0  0  0  0  0  0  0  0  0  0  0  0
    6.6586   -0.1343   19.9960 C   0  0  0  0  0  0  0  0  0  0  0  0
    5.5140    0.6476   20.1856 C   0  0  0  0  0  0  0  0  0  0  0  0
    4.9858    1.3202   19.0804 C   0  0  0  0  0  0  0  0  0  0  0  0
    5.6111    1.1713   17.8378 C   0  0  0  0  0  0  0  0  0  0  0  0
    6.6853    0.3877   17.6393 N   0  0  0  0  0  0  0  0  0  0  0  0
    7.1830   -0.2645   18.7005 C   0  0  0  0  0  0  0  0  0  0  0  0
  2  1  1  6
  2  3  1  0
  3  4  1  0
  4  5  2  0
  5  6  1  0
  6  7  2  0
  7  8  1  0
  2  9  1  0
  9 10  2  0
 10 11  1  0
 12 11  1  1
 12 13  1  0
 13 14  1  0
 14 15  2  0
 15 16  1  0
 16 17  1  0
 11 18  2  0
 18 19  1  0
 19 20  1  0
 20 21  2  0
 21 22  1  0
 22 23  2  0
 23 24  1  0
 24 25  2  0
  8  4  1  0
 19  9  1  0
 25 20  1  0
 17 12  1  0
M  END
>  <cnnaffinity>  (270) 
-6.22389

>  <filename>  (270) 
CC(Cc1cnc[nH]1)c1nc(C2CC=CCC2)nn1-c1cccnc1

>  <enamine_id>  (270) 
PV-006726796562

$$$$

     RDKit          3D

 24 26  0  0  0  0  0  0  0  0999 V2000
    7.2123   -5.0603   22.6037 C   0  0  0  0  0  0  0  0  0  0  0  0
    6.5515   -4.0488   23.3402 O   0  0  0  0  0  0  0  0  0  0  0  0
    7.3896   -2.9584   23.6814 C   0  0  2  0  0  0  0  0  0  0  0  0
    6.7707   -2.2372   24.8798 C   0  0  0  0  0  0  0  0  0  0  0  0
    7.6240   -2.0078   22.5266 C   0  0  0  0  0  0  0  0  0  0  0  0
    6.6751   -1.5840   21.7158 N   0  0  0  0  0  0  0  0  0  0  0  0
    7.3270   -0.6837   20.9374 N   0  0  0  0  0  0  0  0  0  0  0  0
    6.6440   -0.0021   19.8914 C   0  0  0  0  0  0  0  0  0  0  0  0
    5.4320    0.6393   20.1546 C   0  0  0  0  0  0  0  0  0  0  0  0
    4.8043    1.3121   19.1028 C   0  0  0  0  0  0  0  0  0  0  0  0
    5.3957    1.2971   17.8329 C   0  0  0  0  0  0  0  0  0  0  0  0
    6.5482    0.6653   17.5679 N   0  0  0  0  0  0  0  0  0  0  0  0
    7.1569    0.0383   18.5811 C   0  0  0  0  0  0  0  0  0  0  0  0
    8.6160   -0.5783   21.3629 C   0  0  0  0  0  0  0  0  0  0  0  0
    9.6375    0.3082   20.7347 C   0  0  0  0  0  0  0  0  0  0  0  0
   10.5113    0.9889   21.7655 C   0  0  0  0  0  0  0  0  0  0  0  0
   10.0079    2.1219   22.4448 C   0  0  0  0  0  0  0  0  0  0  0  0
    8.6522    2.7227   22.1380 C   0  0  0  0  0  0  0  0  0  0  0  0
   10.7828    2.6855   23.4599 C   0  0  0  0  0  0  0  0  0  0  0  0
   12.0186    2.1439   23.7982 C   0  0  0  0  0  0  0  0  0  0  0  0
   12.5020    1.0155   23.1454 C   0  0  0  0  0  0  0  0  0  0  0  0
   11.7328    0.3897   22.1625 C   0  0  0  0  0  0  0  0  0  0  0  0
   12.1884   -0.9549   21.6356 C   0  0  0  0  0  0  0  0  0  0  0  0
    8.8377   -1.4291   22.3452 N   0  0  0  0  0  0  0  0  0  0  0  0
  1  2  1  0
  2  3  1  0
  3  4  1  1
  3  5  1  0
  5  6  2  0
  6  7  1  0
  7  8  1  0
  8  9  2  0
  9 10  1  0
 10 11  2  0
 11 12  1  0
 12 13  2  0
  7 14  1  0
 14 15  1  0
 15 16  1  0
 16 17  2  0
 17 18  1  0
 17 19  1  0
 19 20  2  0
 20 21  1  0
 21 22  2  0
 22 23  1  0
 14 24  2  0
 24  5  1  0
 13  8  1  0
 22 16  1  0
M  END
>  <cnnaffinity>  (271) 
-6.22348

>  <filename>  (271) 
COC(C)c1nc(Cc2c(C)cccc2C)n(-c2cccnc2)n1

>  <enamine_id>  (271) 
PV-007147056422

$$$$

     RDKit          3D

 26 29  0  0  0  0  0  0  0  0999 V2000
    7.5058   -5.3805   27.2676 C   0  0  0  0  0  0  0  0  0  0  0  0
    7.3243   -4.5565   25.9967 C   0  0  1  0  0  0  0  0  0  0  0  0
    7.4791   -3.0538   26.2654 C   0  0  0  0  0  0  0  0  0  0  0  0
    7.1758   -2.1881   25.0248 C   0  0  0  0  0  0  0  0  0  0  0  0
    7.4436   -2.9264   23.6794 C   0  0  1  0  0  0  0  0  0  0  0  0
    7.6677   -1.9511   22.5655 C   0  0  0  0  0  0  0  0  0  0  0  0
    6.7417   -1.6100   21.6964 N   0  0  0  0  0  0  0  0  0  0  0  0
    7.3629   -0.6670   20.9400 N   0  0  0  0  0  0  0  0  0  0  0  0
    6.6597    0.0096   19.9009 C   0  0  0  0  0  0  0  0  0  0  0  0
    5.4408    0.6455   20.1681 C   0  0  0  0  0  0  0  0  0  0  0  0
    4.8130    1.3106   19.1090 C   0  0  0  0  0  0  0  0  0  0  0  0
    5.4030    1.2956   17.8371 C   0  0  0  0  0  0  0  0  0  0  0  0
    6.5620    0.6744   17.5760 N   0  0  0  0  0  0  0  0  0  0  0  0
    7.1697    0.0570   18.5926 C   0  0  0  0  0  0  0  0  0  0  0  0
    8.6224   -0.4723   21.4267 C   0  0  0  0  0  0  0  0  0  0  0  0
    9.5228    0.6219   20.9497 C   0  0  0  0  0  0  0  0  0  0  0  0
    9.0374    2.0252   21.3509 C   0  0  0  0  0  0  0  0  0  0  0  0
    8.9817    2.2204   22.8698 C   0  0  0  0  0  0  0  0  0  0  0  0
    8.5081    3.5383   23.2562 N   0  0  0  0  0  0  0  0  0  0  0  0
    7.2151    3.9350   23.3279 C   0  0  0  0  0  0  0  0  0  0  0  0
    7.2252    5.2870   23.5825 C   0  0  0  0  0  0  0  0  0  0  0  0
    8.5934    5.6207   23.6263 C   0  0  0  0  0  0  0  0  0  0  0  0
    9.3609    4.5588   23.4213 N   0  0  0  0  0  0  0  0  0  0  0  0
    8.8472   -1.2823   22.4392 N   0  0  0  0  0  0  0  0  0  0  0  0
    8.5975   -3.9377   23.8189 C   0  0  0  0  0  0  0  0  0  0  0  0
    8.2869   -5.0190   24.8767 C   0  0  0  0  0  0  0  0  0  0  0  0
  2  1  1  1
  2  3  1  0
  3  4  1  0
  4  5  1  0
  5  6  1  6
  6  7  2  0
  7  8  1  0
  8  9  1  0
  9 10  2  0
 10 11  1  0
 11 12  2  0
 12 13  1  0
 13 14  2  0
  8 15  1  0
 15 16  1  0
 16 17  1  0
 17 18  1  0
 18 19  1  0
 19 20  1  0
 20 21  2  0
 21 22  1  0
 22 23  2  0
 15 24  2  0
  5 25  1  0
 25 26  1  0
 26  2  1  0
 24  6  1  0
 14  9  1  0
 23 19  1  0
M  END
>  <cnnaffinity>  (272) 
-6.22223

>  <filename>  (272) 
CC1CCC(c2nc(CCCn3cccn3)n(-c3cccnc3)n2)CC1

>  <enamine_id>  (272) 
PV-006731762441

$$$$

     RDKit          3D

 25 28  0  0  0  0  0  0  0  0999 V2000
    8.7404    1.7436   20.7182 O   0  0  0  0  0  0  0  0  0  0  0  0
    8.6069    1.2050   22.0200 C   0  0  1  0  0  0  0  0  0  0  0  0
    7.7146    2.1666   22.8479 C   0  0  0  0  0  0  0  0  0  0  0  0
    8.3827    3.5128   22.9166 C   0  0  0  0  0  0  0  0  0  0  0  0
    9.4693    3.7510   23.7765 C   0  0  0  0  0  0  0  0  0  0  0  0
   10.0521    5.0189   23.8137 C   0  0  0  0  0  0  0  0  0  0  0  0
    9.5201    6.0008   22.9762 C   0  0  0  0  0  0  0  0  0  0  0  0
    8.4799    5.6525   22.1070 C   0  0  0  0  0  0  0  0  0  0  0  0
    7.9458    4.4254   22.0386 N   0  0  0  0  0  0  0  0  0  0  0  0
    8.1646   -0.2491   21.9711 C   0  0  0  0  0  0  0  0  0  0  0  0
    8.4714   -1.2230   22.8162 N   0  0  0  0  0  0  0  0  0  0  0  0
    7.8314   -2.3064   22.2926 C   0  0  0  0  0  0  0  0  0  0  0  0
    7.8493   -3.6811   22.9136 C   0  0  0  0  0  0  0  0  0  0  0  0
    8.3078   -3.7110   24.3849 C   0  0  0  0  0  0  0  0  0  0  0  0
    7.7955   -5.0490   24.9563 C   0  0  0  0  0  0  0  0  0  0  0  0
    6.6588   -5.5142   24.0081 C   0  0  0  0  0  0  0  0  0  0  0  0
    6.4747   -4.3957   22.9653 C   0  0  0  0  0  0  0  0  0  0  0  0
    7.1620   -2.0576   21.1788 N   0  0  0  0  0  0  0  0  0  0  0  0
    7.3646   -0.7370   20.9925 N   0  0  0  0  0  0  0  0  0  0  0  0
    6.7102   -0.0473   19.9399 C   0  0  0  0  0  0  0  0  0  0  0  0
    5.4919    0.5940   20.1611 C   0  0  0  0  0  0  0  0  0  0  0  0
    4.9105    1.2766   19.0898 C   0  0  0  0  0  0  0  0  0  0  0  0
    5.5647    1.2848   17.8547 C   0  0  0  0  0  0  0  0  0  0  0  0
    6.7327    0.6566   17.6420 N   0  0  0  0  0  0  0  0  0  0  0  0
    7.2913    0.0070   18.6686 C   0  0  0  0  0  0  0  0  0  0  0  0
  2  1  1  6
  2  3  1  0
  3  4  1  0
  4  5  2  0
  5  6  1  0
  6  7  2  0
  7  8  1  0
  8  9  2  0
  2 10  1  0
 10 11  2  0
 11 12  1  0
 12 13  1  0
 13 14  1  0
 14 15  1  0
 15 16  1  0
 16 17  1  0
 12 18  2  0
 18 19  1  0
 19 20  1  0
 20 21  2  0
 21 22  1  0
 22 23  2  0
 23 24  1  0
 24 25  2  0
  9  4  1  0
 19 10  1  0
 25 20  1  0
 17 13  1  0
M  END
>  <cnnaffinity>  (273) 
-6.22076

>  <filename>  (273) 
OC(Cc1ccccn1)c1nc(C2CCCC2)nn1-c1cccnc1

>  <enamine_id>  (273) 
PV-006777763661

$$$$

     RDKit          3D

 24 27  0  0  0  0  0  0  0  0999 V2000
   11.3534    4.2507   22.7558 C   0  0  0  0  0  0  0  0  0  0  0  0
   11.3440    2.9404   23.4724 C   0  0  0  0  0  0  0  0  0  0  0  0
   12.3752    2.4605   24.1231 N   0  0  0  0  0  0  0  0  0  0  0  0
   11.9813    1.2395   24.6079 C   0  0  0  0  0  0  0  0  0  0  0  0
   10.6943    0.9795   24.2386 C   0  0  0  0  0  0  0  0  0  0  0  0
   10.2784    2.0842   23.5144 N   0  0  0  0  0  0  0  0  0  0  0  0
    9.0022    2.2324   22.8289 C   0  0  0  0  0  0  0  0  0  0  0  0
    9.0730    2.0064   21.3129 C   0  0  0  0  0  0  0  0  0  0  0  0
    9.5453    0.5922   20.9278 C   0  0  0  0  0  0  0  0  0  0  0  0
    8.6489   -0.4883   21.4192 C   0  0  0  0  0  0  0  0  0  0  0  0
    8.8803   -1.3190   22.4210 N   0  0  0  0  0  0  0  0  0  0  0  0
    7.6990   -1.9705   22.5563 C   0  0  0  0  0  0  0  0  0  0  0  0
    7.4585   -2.9770   23.6268 C   0  0  0  0  0  0  0  0  0  0  0  0
    6.7430   -4.2833   23.1737 C   0  0  0  0  0  0  0  0  0  0  0  0
    5.5454   -3.9340   24.0866 C   0  0  0  0  0  0  0  0  0  0  0  0
    6.2656   -2.6596   24.5807 C   0  0  0  0  0  0  0  0  0  0  0  0
    6.7638   -1.6082   21.6965 N   0  0  0  0  0  0  0  0  0  0  0  0
    7.3800   -0.6619   20.9450 N   0  0  0  0  0  0  0  0  0  0  0  0
    6.6646    0.0073   19.9064 C   0  0  0  0  0  0  0  0  0  0  0  0
    5.4425    0.6395   20.1698 C   0  0  0  0  0  0  0  0  0  0  0  0
    4.8142    1.3074   19.1117 C   0  0  0  0  0  0  0  0  0  0  0  0
    5.4014    1.2953   17.8390 C   0  0  0  0  0  0  0  0  0  0  0  0
    6.5614    0.6742   17.5776 N   0  0  0  0  0  0  0  0  0  0  0  0
    7.1703    0.0551   18.5953 C   0  0  0  0  0  0  0  0  0  0  0  0
  1  2  1  0
  2  3  2  0
  3  4  1  0
  4  5  2  0
  5  6  1  0
  6  7  1  0
  7  8  1  0
  8  9  1  0
  9 10  1  0
 10 11  2  0
 11 12  1  0
 12 13  1  0
 13 14  1  0
 14 15  1  0
 15 16  1  0
 12 17  2  0
 17 18  1  0
 18 19  1  0
 19 20  2  0
 20 21  1  0
 21 22  2  0
 22 23  1  0
 23 24  2  0
  6  2  1  0
 18 10  1  0
 24 19  1  0
 16 13  1  0
M  END
>  <cnnaffinity>  (274) 
-6.21995

>  <filename>  (274) 
Cc1nccn1CCCc1nc(C2CCC2)nn1-c1cccnc1

>  <enamine_id>  (274) 
PV-006812827996

$$$$

     RDKit          3D

 26 29  0  0  0  0  0  0  0  0999 V2000
    7.7745   -4.4126   26.1396 C   0  0  0  0  0  0  0  0  0  0  0  0
    7.4446   -3.1243   26.2485 C   0  0  0  0  0  0  0  0  0  0  0  0
    7.4395   -2.1704   25.0772 C   0  0  0  0  0  0  0  0  0  0  0  0
    7.4236   -2.9041   23.7045 C   0  0  1  0  0  0  0  0  0  0  0  0
    7.6602   -1.9360   22.5876 C   0  0  0  0  0  0  0  0  0  0  0  0
    6.7252   -1.5671   21.7386 N   0  0  0  0  0  0  0  0  0  0  0  0
    7.3564   -0.6357   20.9713 N   0  0  0  0  0  0  0  0  0  0  0  0
    6.6668    0.0159   19.9071 C   0  0  0  0  0  0  0  0  0  0  0  0
    5.4433    0.6464   20.1574 C   0  0  0  0  0  0  0  0  0  0  0  0
    4.8175    1.3109   19.0999 C   0  0  0  0  0  0  0  0  0  0  0  0
    5.4140    1.2993   17.8333 C   0  0  0  0  0  0  0  0  0  0  0  0
    6.5667    0.6627   17.5756 N   0  0  0  0  0  0  0  0  0  0  0  0
    7.1726    0.0384   18.5936 C   0  0  0  0  0  0  0  0  0  0  0  0
    8.6235   -0.4669   21.4435 C   0  0  0  0  0  0  0  0  0  0  0  0
    9.5388    0.6114   20.9852 C   0  0  0  0  0  0  0  0  0  0  0  0
    9.0739    2.0150   21.4006 C   0  0  0  0  0  0  0  0  0  0  0  0
    8.5713    2.0907   22.7282 O   0  0  0  0  0  0  0  0  0  0  0  0
    9.3169    1.7391   23.8056 C   0  0  0  0  0  0  0  0  0  0  0  0
    8.5967    1.4717   24.9809 C   0  0  0  0  0  0  0  0  0  0  0  0
    9.3086    1.0583   26.1082 C   0  0  0  0  0  0  0  0  0  0  0  0
   10.6985    0.9332   26.0365 C   0  0  0  0  0  0  0  0  0  0  0  0
   11.4089    1.2485   24.9441 N   0  0  0  0  0  0  0  0  0  0  0  0
   10.7254    1.6611   23.8624 C   0  0  0  0  0  0  0  0  0  0  0  0
    8.8592   -1.3067   22.4271 N   0  0  0  0  0  0  0  0  0  0  0  0
    8.4639   -4.0497   23.7192 C   0  0  0  0  0  0  0  0  0  0  0  0
    8.1402   -5.0699   24.8272 C   0  0  0  0  0  0  0  0  0  0  0  0
  1  2  2  0
  2  3  1  0
  3  4  1  0
  4  5  1  6
  5  6  2  0
  6  7  1  0
  7  8  1  0
  8  9  2  0
  9 10  1  0
 10 11  2  0
 11 12  1  0
 12 13  2  0
  7 14  1  0
 14 15  1  0
 15 16  1  0
 16 17  1  0
 17 18  1  0
 18 19  2  0
 19 20  1  0
 20 21  2  0
 21 22  1  0
 22 23  2  0
 14 24  2  0
  4 25  1  0
 25 26  1  0
 26  1  1  0
 24  5  1  0
 13  8  1  0
 23 18  1  0
M  END
>  <cnnaffinity>  (275) 
-6.21814

>  <filename>  (275) 
C1=CCC(c2nc(CCOc3cccnc3)n(-c3cccnc3)n2)CC1

>  <enamine_id>  (275) 
PV-006867120664

$$$$

     RDKit          3D

 25 28  0  0  0  0  0  0  0  0999 V2000
    8.1588    2.5065   21.6857 C   0  0  0  0  0  0  0  0  0  0  0  0
    9.4945    1.8027   21.8599 C   0  0  2  0  0  0  0  0  0  0  0  0
    9.5845    0.5235   20.9899 C   0  0  0  0  0  0  0  0  0  0  0  0
    8.6323   -0.5557   21.3787 C   0  0  0  0  0  0  0  0  0  0  0  0
    8.8544   -1.4328   22.3357 N   0  0  0  0  0  0  0  0  0  0  0  0
    7.6558   -2.0490   22.4830 C   0  0  0  0  0  0  0  0  0  0  0  0
    7.4125   -3.0395   23.5805 C   0  0  2  0  0  0  0  0  0  0  0  0
    6.7314   -4.3270   23.0434 C   0  0  0  0  0  0  0  0  0  0  0  0
    6.2448   -5.2300   24.1515 C   0  0  0  0  0  0  0  0  0  0  0  0
    6.0681   -4.8239   25.4112 C   0  0  0  0  0  0  0  0  0  0  0  0
    6.4000   -3.4280   25.8950 C   0  0  0  0  0  0  0  0  0  0  0  0
    6.5708   -2.4244   24.7367 C   0  0  0  0  0  0  0  0  0  0  0  0
    6.7136   -1.6375   21.6488 N   0  0  0  0  0  0  0  0  0  0  0  0
    7.3547   -0.6956   20.9122 N   0  0  0  0  0  0  0  0  0  0  0  0
    6.6567   -0.0060   19.8864 C   0  0  0  0  0  0  0  0  0  0  0  0
    5.4419    0.6324   20.1556 C   0  0  0  0  0  0  0  0  0  0  0  0
    4.8076    1.3078   19.1060 C   0  0  0  0  0  0  0  0  0  0  0  0
    5.3958    1.2978   17.8355 C   0  0  0  0  0  0  0  0  0  0  0  0
    6.5488    0.6670   17.5681 N   0  0  0  0  0  0  0  0  0  0  0  0
    7.1614    0.0393   18.5772 C   0  0  0  0  0  0  0  0  0  0  0  0
    9.7767    1.5309   23.2675 N   0  0  0  0  0  0  0  0  0  0  0  0
   11.0296    1.4429   23.8369 C   0  0  0  0  0  0  0  0  0  0  0  0
   10.8238    1.0111   25.1199 C   0  0  0  0  0  0  0  0  0  0  0  0
    9.4867    0.8254   25.3530 N   0  0  0  0  0  0  0  0  0  0  0  0
    8.8945    1.1333   24.2291 C   0  0  0  0  0  0  0  0  0  0  0  0
  2  1  1  1
  2  3  1  0
  3  4  1  0
  4  5  2  0
  5  6  1  0
  7  6  1  6
  7  8  1  0
  8  9  1  0
  9 10  2  0
 10 11  1  0
 11 12  1  0
  6 13  2  0
 13 14  1  0
 14 15  1  0
 15 16  2  0
 16 17  1  0
 17 18  2  0
 18 19  1  0
 19 20  2  0
  2 21  1  0
 21 22  1  0
 22 23  2  0
 23 24  1  0
 24 25  2  0
 14  4  1  0
 20 15  1  0
 25 21  1  0
 12  7  1  0
M  END
>  <cnnaffinity>  (276) 
-6.21788

>  <filename>  (276) 
CC(Cc1nc(C2CC=CCC2)nn1-c1cccnc1)n1ccnc1

>  <enamine_id>  (276) 
PV-006949607660

$$$$

     RDKit          3D

 24 26  0  0  0  0  0  0  0  0999 V2000
    8.6442    2.7197   21.9283 C   0  0  0  0  0  0  0  0  0  0  0  0
    9.9226    2.0733   22.4094 C   0  0  0  0  0  0  0  0  0  0  0  0
   10.6269    2.6708   23.4617 C   0  0  0  0  0  0  0  0  0  0  0  0
   11.8105    2.1094   23.9461 C   0  0  0  0  0  0  0  0  0  0  0  0
   12.3474    0.9819   23.3320 C   0  0  0  0  0  0  0  0  0  0  0  0
   11.6450    0.3784   22.2826 C   0  0  0  0  0  0  0  0  0  0  0  0
   12.3615   -1.0616   21.5910 Cl  0  0  0  0  0  0  0  0  0  0  0  0
   10.4099    0.8762   21.8278 C   0  0  0  0  0  0  0  0  0  0  0  0
    9.5399    0.1321   20.8247 C   0  0  0  0  0  0  0  0  0  0  0  0
    8.3936   -0.6100   21.4641 C   0  0  0  0  0  0  0  0  0  0  0  0
    8.4647   -1.3018   22.5896 N   0  0  0  0  0  0  0  0  0  0  0  0
    7.2484   -1.9036   22.6723 C   0  0  0  0  0  0  0  0  0  0  0  0
    6.9116   -2.9236   23.7205 C   0  0  0  0  0  0  0  0  0  0  0  0
    7.0628   -4.3686   23.1992 C   0  0  0  0  0  0  0  0  0  0  0  0
    8.4829   -4.7461   22.7913 C   0  0  0  0  0  0  0  0  0  0  0  0
    9.4020   -4.7230   23.8673 O   0  0  0  0  0  0  0  0  0  0  0  0
    6.4258   -1.6200   21.6843 N   0  0  0  0  0  0  0  0  0  0  0  0
    7.1580   -0.7902   20.8940 N   0  0  0  0  0  0  0  0  0  0  0  0
    6.5153   -0.0972   19.8220 C   0  0  0  0  0  0  0  0  0  0  0  0
    5.3290    0.6060   20.0648 C   0  0  0  0  0  0  0  0  0  0  0  0
    4.7692    1.3510   19.0243 C   0  0  0  0  0  0  0  0  0  0  0  0
    5.3984    1.3506   17.7730 C   0  0  0  0  0  0  0  0  0  0  0  0
    6.5174    0.6547   17.5205 N   0  0  0  0  0  0  0  0  0  0  0  0
    7.0542   -0.0546   18.5231 C   0  0  0  0  0  0  0  0  0  0  0  0
  1  2  1  0
  2  3  2  0
  3  4  1  0
  4  5  2  0
  5  6  1  0
  6  7  1  0
  6  8  2  0
  8  9  1  0
  9 10  1  0
 10 11  2  0
 11 12  1  0
 12 13  1  0
 13 14  1  0
 14 15  1  0
 15 16  1  0
 12 17  2  0
 17 18  1  0
 18 19  1  0
 19 20  2  0
 20 21  1  0
 21 22  2  0
 22 23  1  0
 23 24  2  0
  8  2  1  0
 18 10  1  0
 24 19  1  0
M  END
>  <cnnaffinity>  (277) 
-6.2133

>  <filename>  (277) 
Cc1cccc(Cl)c1Cc1nc(CCCO)nn1-c1cccnc1

>  <enamine_id>  (277) 
PV-007168570313

$$$$

     RDKit          3D

 24 27  0  0  0  0  0  0  0  0999 V2000
    6.9242    1.8043   23.7689 C   0  0  0  0  0  0  0  0  0  0  0  0
    8.3810    1.7435   24.1692 C   0  0  0  0  0  0  0  0  0  0  0  0
    8.7498    1.4901   25.4934 C   0  0  0  0  0  0  0  0  0  0  0  0
   10.0989    1.3183   25.8217 C   0  0  0  0  0  0  0  0  0  0  0  0
   11.0489    1.5248   24.8307 C   0  0  0  0  0  0  0  0  0  0  0  0
   10.7301    1.7979   23.5645 N   0  0  0  0  0  0  0  0  0  0  0  0
    9.4350    1.8605   23.2251 C   0  0  0  0  0  0  0  0  0  0  0  0
    9.1924    1.9719   21.7339 C   0  0  0  0  0  0  0  0  0  0  0  0
    9.5003    0.6344   20.9913 C   0  0  0  0  0  0  0  0  0  0  0  0
    8.6107   -0.4982   21.3954 C   0  0  0  0  0  0  0  0  0  0  0  0
    8.8523   -1.3360   22.3831 N   0  0  0  0  0  0  0  0  0  0  0  0
    7.6634   -1.9794   22.5487 C   0  0  0  0  0  0  0  0  0  0  0  0
    7.3875   -2.9013   23.6908 C   0  0  0  0  0  0  0  0  0  0  0  0
    8.6187   -3.6568   24.2799 C   0  0  0  0  0  0  0  0  0  0  0  0
    8.4394   -2.9130   25.6297 C   0  0  0  0  0  0  0  0  0  0  0  0
    7.1818   -2.1878   25.0809 C   0  0  0  0  0  0  0  0  0  0  0  0
    6.7217   -1.6247   21.6940 N   0  0  0  0  0  0  0  0  0  0  0  0
    7.3420   -0.6838   20.9304 N   0  0  0  0  0  0  0  0  0  0  0  0
    6.6454   -0.0075   19.8884 C   0  0  0  0  0  0  0  0  0  0  0  0
    5.4347    0.6386   20.1481 C   0  0  0  0  0  0  0  0  0  0  0  0
    4.8049    1.3140   19.0993 C   0  0  0  0  0  0  0  0  0  0  0  0
    5.3951    1.2977   17.8304 C   0  0  0  0  0  0  0  0  0  0  0  0
    6.5475    0.6624   17.5681 N   0  0  0  0  0  0  0  0  0  0  0  0
    7.1566    0.0344   18.5793 C   0  0  0  0  0  0  0  0  0  0  0  0
  1  2  1  0
  2  3  2  0
  3  4  1  0
  4  5  2  0
  5  6  1  0
  6  7  2  0
  7  8  1  0
  8  9  1  0
  9 10  1  0
 10 11  2  0
 11 12  1  0
 12 13  1  0
 13 14  1  0
 14 15  1  0
 15 16  1  0
 12 17  2  0
 17 18  1  0
 18 19  1  0
 19 20  2  0
 20 21  1  0
 21 22  2  0
 22 23  1  0
 23 24  2  0
  7  2  1  0
 18 10  1  0
 24 19  1  0
 16 13  1  0
M  END
>  <cnnaffinity>  (278) 
-6.21064

>  <filename>  (278) 
Cc1cccnc1CCc1nc(C2CCC2)nn1-c1cccnc1

>  <enamine_id>  (278) 
PV-006979596449

$$$$

     RDKit          3D

 22 25  0  0  0  0  0  0  0  0999 V2000
    4.8118    1.3117   19.1088 C   0  0  0  0  0  0  0  0  0  0  0  0
    5.4026    1.2954   17.8367 C   0  0  0  0  0  0  0  0  0  0  0  0
    6.5614    0.6724   17.5763 N   0  0  0  0  0  0  0  0  0  0  0  0
    7.1662    0.0526   18.5935 C   0  0  0  0  0  0  0  0  0  0  0  0
    6.6492    0.0018   19.8999 C   0  0  0  0  0  0  0  0  0  0  0  0
    7.3313   -0.6902   20.9348 N   0  0  0  0  0  0  0  0  0  0  0  0
    6.6734   -1.5481   21.7613 N   0  0  0  0  0  0  0  0  0  0  0  0
    7.6286   -1.9892   22.5577 C   0  0  0  0  0  0  0  0  0  0  0  0
    7.3720   -2.9428   23.6873 C   0  0  0  0  0  0  0  0  0  0  0  0
    8.3765   -4.1181   23.7240 C   0  0  0  0  0  0  0  0  0  0  0  0
    9.5278   -3.6855   24.6597 C   0  0  0  0  0  0  0  0  0  0  0  0
    9.0142   -2.4758   25.4698 C   0  0  0  0  0  0  0  0  0  0  0  0
    7.5409   -2.2648   25.0701 C   0  0  0  0  0  0  0  0  0  0  0  0
    8.8544   -1.4692   22.3140 N   0  0  0  0  0  0  0  0  0  0  0  0
    8.6372   -0.6354   21.3249 C   0  0  0  0  0  0  0  0  0  0  0  0
    9.6780    0.1892   20.6622 C   0  0  0  0  0  0  0  0  0  0  0  0
   10.7014    0.6636   21.6416 C   0  0  0  0  0  0  0  0  0  0  0  0
   11.8388    0.0632   21.8325 N   0  0  0  0  0  0  0  0  0  0  0  0
   12.4455    0.7217   22.8846 O   0  0  0  0  0  0  0  0  0  0  0  0
   11.6466    1.7184   23.2934 C   0  0  0  0  0  0  0  0  0  0  0  0
   10.5200    1.7496   22.5454 C   0  0  0  0  0  0  0  0  0  0  0  0
    5.4361    0.6455   20.1666 C   0  0  0  0  0  0  0  0  0  0  0  0
  1  2  2  0
  2  3  1  0
  3  4  2  0
  4  5  1  0
  5  6  1  0
  6  7  1  0
  7  8  2  0
  8  9  1  0
  9 10  1  0
 10 11  1  0
 11 12  1  0
 12 13  1  0
  8 14  1  0
 14 15  2  0
 15 16  1  0
 16 17  1  0
 17 18  2  0
 18 19  1  0
 19 20  1  0
 20 21  2  0
  5 22  2  0
 22  1  1  0
 15  6  1  0
 21 17  1  0
 13  9  1  0
M  END
>  <cnnaffinity>  (279) 
-6.21059

>  <filename>  (279) 
c1cncc(-n2nc(C3CCCC3)nc2Cc2ccon2)c1

>  <enamine_id>  (279) 
PV-006887818997

$$$$

     RDKit          3D

 25 28  0  0  0  0  0  0  0  0999 V2000
    8.4835    7.5569   23.5390 F   0  0  0  0  0  0  0  0  0  0  0  0
    8.5217    6.2760   23.1507 C   0  0  0  0  0  0  0  0  0  0  0  0
    7.6783    5.7891   22.1632 C   0  0  0  0  0  0  0  0  0  0  0  0
    7.7231    4.5163   21.7760 N   0  0  0  0  0  0  0  0  0  0  0  0
    8.6349    3.7221   22.3468 C   0  0  0  0  0  0  0  0  0  0  0  0
    8.6880    2.2928   21.8806 C   0  0  0  0  0  0  0  0  0  0  0  0
    7.6716    1.3808   22.6354 C   0  0  0  0  0  0  0  0  0  0  0  0
    7.6599   -0.0555   22.2147 C   0  0  0  0  0  0  0  0  0  0  0  0
    8.1075   -1.0501   22.9543 N   0  0  0  0  0  0  0  0  0  0  0  0
    8.0981   -2.1089   22.1043 C   0  0  0  0  0  0  0  0  0  0  0  0
    8.6013   -3.4800   22.4900 C   0  0  0  0  0  0  0  0  0  0  0  0
    7.7430   -4.6448   21.9402 C   0  0  0  0  0  0  0  0  0  0  0  0
    8.1139   -5.8551   22.8099 C   0  0  0  0  0  0  0  0  0  0  0  0
    8.5539   -5.2970   24.1857 C   0  0  0  0  0  0  0  0  0  0  0  0
    8.7038   -3.7610   24.0154 C   0  0  0  0  0  0  0  0  0  0  0  0
    7.6601   -1.8296   20.8863 N   0  0  0  0  0  0  0  0  0  0  0  0
    7.3219   -0.5156   20.9739 N   0  0  0  0  0  0  0  0  0  0  0  0
    6.6251    0.0974   19.8906 C   0  0  0  0  0  0  0  0  0  0  0  0
    5.4201    0.7861   20.0873 C   0  0  0  0  0  0  0  0  0  0  0  0
    4.8210    1.3989   18.9824 C   0  0  0  0  0  0  0  0  0  0  0  0
    5.4483    1.3167   17.7377 C   0  0  0  0  0  0  0  0  0  0  0  0
    6.5806    0.6200   17.5347 N   0  0  0  0  0  0  0  0  0  0  0  0
    7.1350    0.0013   18.5825 C   0  0  0  0  0  0  0  0  0  0  0  0
    9.4637    4.0988   23.3316 N   0  0  0  0  0  0  0  0  0  0  0  0
    9.4087    5.3733   23.7198 C   0  0  0  0  0  0  0  0  0  0  0  0
  1  2  1  0
  2  3  2  0
  3  4  1  0
  4  5  2  0
  5  6  1  0
  6  7  1  0
  7  8  1  0
  8  9  2  0
  9 10  1  0
 10 11  1  0
 11 12  1  0
 12 13  1  0
 13 14  1  0
 14 15  1  0
 10 16  2  0
 16 17  1  0
 17 18  1  0
 18 19  2  0
 19 20  1  0
 20 21  2  0
 21 22  1  0
 22 23  2  0
  5 24  1  0
 24 25  2  0
 25  2  1  0
 17  8  1  0
 23 18  1  0
 15 11  1  0
M  END
>  <cnnaffinity>  (280) 
-6.20936

>  <filename>  (280) 
Fc1cnc(CCc2nc(C3CCCC3)nn2-c2cccnc2)nc1

>  <enamine_id>  (280) 
PV-006731007021

$$$$

     RDKit          3D

 23 26  0  0  0  0  0  0  0  0999 V2000
    4.7052    1.3660   18.7832 C   0  0  0  0  0  0  0  0  0  0  0  0
    5.4719    1.3016   17.6167 C   0  0  0  0  0  0  0  0  0  0  0  0
    6.6067    0.5854   17.5279 N   0  0  0  0  0  0  0  0  0  0  0  0
    7.0320   -0.0573   18.6211 C   0  0  0  0  0  0  0  0  0  0  0  0
    6.3640   -0.0052   19.8631 C   0  0  0  0  0  0  0  0  0  0  0  0
    6.9351   -0.6339   21.0090 N   0  0  0  0  0  0  0  0  0  0  0  0
    7.6770   -1.7695   20.8782 N   0  0  0  0  0  0  0  0  0  0  0  0
    7.9937   -2.0708   22.1237 C   0  0  0  0  0  0  0  0  0  0  0  0
    8.9248   -3.1912   22.4613 C   0  0  0  0  0  0  0  0  0  0  0  0
   10.2950   -2.8293   23.1349 C   0  0  0  0  0  0  0  0  0  0  0  0
   10.0017   -3.8305   24.2722 C   0  0  0  0  0  0  0  0  0  0  0  0
    8.5971   -4.0953   23.6863 C   0  0  0  0  0  0  0  0  0  0  0  0
    7.5145   -1.2086   23.0554 N   0  0  0  0  0  0  0  0  0  0  0  0
    6.9322   -0.2641   22.3320 C   0  0  0  0  0  0  0  0  0  0  0  0
    6.6464    1.1100   22.8864 C   0  0  0  0  0  0  0  0  0  0  0  0
    7.8953    1.7373   23.5634 C   0  0  0  0  0  0  0  0  0  0  0  0
    9.0660    1.8769   22.5716 C   0  0  0  0  0  0  0  0  0  0  0  0
   10.3420    2.1480   23.2075 N   0  0  0  0  0  0  0  0  0  0  0  0
   11.1950    1.2219   23.7029 C   0  0  0  0  0  0  0  0  0  0  0  0
   12.2867    1.9038   24.1873 C   0  0  0  0  0  0  0  0  0  0  0  0
   11.9785    3.2588   23.9430 C   0  0  0  0  0  0  0  0  0  0  0  0
   10.7987    3.3931   23.3618 N   0  0  0  0  0  0  0  0  0  0  0  0
    5.1427    0.6841   19.9253 C   0  0  0  0  0  0  0  0  0  0  0  0
  1  2  2  0
  2  3  1  0
  3  4  2  0
  4  5  1  0
  5  6  1  0
  6  7  1  0
  7  8  2  0
  8  9  1  0
  9 10  1  0
 10 11  1  0
 11 12  1  0
  8 13  1  0
 13 14  2  0
 14 15  1  0
 15 16  1  0
 16 17  1  0
 17 18  1  0
 18 19  1  0
 19 20  2  0
 20 21  1  0
 21 22  2  0
  5 23  2  0
 23  1  1  0
 14  6  1  0
 22 18  1  0
 12  9  1  0
M  END
>  <cnnaffinity>  (281) 
-6.20893

>  <filename>  (281) 
c1cncc(-n2nc(C3CCC3)nc2CCCn2cccn2)c1

>  <enamine_id>  (281) 
PV-006776295633

$$$$

     RDKit          3D

 25 28  0  0  0  0  0  0  0  0999 V2000
    4.8115    1.3107   19.1090 C   0  0  0  0  0  0  0  0  0  0  0  0
    5.4018    1.2956   17.8374 C   0  0  0  0  0  0  0  0  0  0  0  0
    6.5623    0.6756   17.5771 N   0  0  0  0  0  0  0  0  0  0  0  0
    7.1721    0.0575   18.5928 C   0  0  0  0  0  0  0  0  0  0  0  0
    6.6614    0.0124   19.9013 C   0  0  0  0  0  0  0  0  0  0  0  0
    7.3633   -0.6617   20.9379 N   0  0  0  0  0  0  0  0  0  0  0  0
    6.7413   -1.6025   21.6957 N   0  0  0  0  0  0  0  0  0  0  0  0
    7.6639   -1.9431   22.5676 C   0  0  0  0  0  0  0  0  0  0  0  0
    7.4461   -2.9299   23.6712 C   0  0  0  0  0  0  0  0  0  0  0  0
    8.5325   -4.0183   23.7651 C   0  0  0  0  0  0  0  0  0  0  0  0
    8.4862   -4.5158   25.2191 C   0  0  0  0  0  0  0  0  0  0  0  0
    7.8204   -3.3969   26.0555 C   0  0  0  0  0  0  0  0  0  0  0  0
    7.4292   -2.2796   25.0728 C   0  0  0  0  0  0  0  0  0  0  0  0
    8.8455   -1.2752   22.4397 N   0  0  0  0  0  0  0  0  0  0  0  0
    8.6249   -0.4687   21.4247 C   0  0  0  0  0  0  0  0  0  0  0  0
    9.5290    0.6126   20.9316 C   0  0  0  0  0  0  0  0  0  0  0  0
    9.0324    2.0151   21.3050 C   0  0  0  0  0  0  0  0  0  0  0  0
    8.9332    2.2179   22.8195 C   0  0  0  0  0  0  0  0  0  0  0  0
    8.4435    3.5894   23.1574 C   0  0  0  0  0  0  0  0  0  0  0  0
    7.0775    3.8746   23.1963 C   0  0  0  0  0  0  0  0  0  0  0  0
    6.6646    5.1816   23.4488 C   0  0  0  0  0  0  0  0  0  0  0  0
    7.5050    6.2036   23.6596 N   0  0  0  0  0  0  0  0  0  0  0  0
    8.8125    5.9235   23.5964 C   0  0  0  0  0  0  0  0  0  0  0  0
    9.3273    4.6513   23.3513 C   0  0  0  0  0  0  0  0  0  0  0  0
    5.4404    0.6461   20.1651 C   0  0  0  0  0  0  0  0  0  0  0  0
  1  2  2  0
  2  3  1  0
  3  4  2  0
  4  5  1  0
  5  6  1  0
  6  7  1  0
  7  8  2  0
  8  9  1  0
  9 10  1  0
 10 11  1  0
 11 12  1  0
 12 13  1  0
  8 14  1  0
 14 15  2  0
 15 16  1  0
 16 17  1  0
 17 18  1  0
 18 19  1  0
 19 20  2  0
 20 21  1  0
 21 22  2  0
 22 23  1  0
 23 24  2  0
  5 25  2  0
 25  1  1  0
 15  6  1  0
 24 19  1  0
 13  9  1  0
M  END
>  <cnnaffinity>  (282) 
-6.20672

>  <filename>  (282) 
c1cncc(-n2nc(C3CCCC3)nc2CCCc2ccncc2)c1

>  <enamine_id>  (282) 
PV-006884623061

$$$$

     RDKit          3D

 23 26  0  0  0  0  0  0  0  0999 V2000
    7.2315    1.6462   26.4251 C   0  0  0  0  0  0  0  0  0  0  0  0
    8.0270    1.8430   25.1821 C   0  0  0  0  0  0  0  0  0  0  0  0
    9.3170    1.9917   25.1577 N   0  0  0  0  0  0  0  0  0  0  0  0
    9.7529    2.1031   23.8620 C   0  0  0  0  0  0  0  0  0  0  0  0
    8.8112    2.0819   22.8808 C   0  0  0  0  0  0  0  0  0  0  0  0
    9.0286    2.0182   21.3953 C   0  0  0  0  0  0  0  0  0  0  0  0
    9.5265    0.6181   20.9380 C   0  0  0  0  0  0  0  0  0  0  0  0
    8.6437   -0.4904   21.4052 C   0  0  0  0  0  0  0  0  0  0  0  0
    8.8819   -1.3048   22.4154 N   0  0  0  0  0  0  0  0  0  0  0  0
    7.6825   -1.9140   22.5993 C   0  0  0  0  0  0  0  0  0  0  0  0
    7.4054   -2.7864   23.7779 C   0  0  0  0  0  0  0  0  0  0  0  0
    6.4670   -2.1494   24.8578 C   0  0  0  0  0  0  0  0  0  0  0  0
    5.4319   -3.2657   24.5939 C   0  0  0  0  0  0  0  0  0  0  0  0
    6.3700   -3.9229   23.5558 C   0  0  0  0  0  0  0  0  0  0  0  0
    6.7487   -1.5751   21.7297 N   0  0  0  0  0  0  0  0  0  0  0  0
    7.3721   -0.6666   20.9392 N   0  0  0  0  0  0  0  0  0  0  0  0
    6.6598    0.0034   19.9027 C   0  0  0  0  0  0  0  0  0  0  0  0
    5.4407    0.6400   20.1687 C   0  0  0  0  0  0  0  0  0  0  0  0
    4.8142    1.3084   19.1109 C   0  0  0  0  0  0  0  0  0  0  0  0
    5.4010    1.2954   17.8387 C   0  0  0  0  0  0  0  0  0  0  0  0
    6.5607    0.6737   17.5768 N   0  0  0  0  0  0  0  0  0  0  0  0
    7.1690    0.0527   18.5936 C   0  0  0  0  0  0  0  0  0  0  0  0
    7.2649    1.8808   23.6293 S   0  0  0  0  0  0  0  0  0  0  0  0
  1  2  1  0
  2  3  2  0
  3  4  1  0
  4  5  2  0
  5  6  1  0
  6  7  1  0
  7  8  1  0
  8  9  2  0
  9 10  1  0
 10 11  1  0
 11 12  1  0
 12 13  1  0
 13 14  1  0
 10 15  2  0
 15 16  1  0
 16 17  1  0
 17 18  2  0
 18 19  1  0
 19 20  2  0
 20 21  1  0
 21 22  2  0
  5 23  1  0
 23  2  1  0
 16  8  1  0
 22 17  1  0
 14 11  1  0
M  END
>  <cnnaffinity>  (283) 
-6.20501

>  <filename>  (283) 
Cc1ncc(CCc2nc(C3CCC3)nn2-c2cccnc2)s1

>  <enamine_id>  (283) 
PV-006944684521

$$$$

     RDKit          3D

 24 27  0  0  0  0  0  0  0  0999 V2000
    8.3027    4.0393   23.0329 C   0  0  0  0  0  0  0  0  0  0  0  0
    8.3936    4.2525   22.8533 C   0  0  0  0  0  0  0  0  0  0  0  0
    8.0618    2.6145   21.6706 C   0  0  0  0  0  0  0  0  0  0  0  0
    9.0792    1.7557   22.0127 C   0  0  0  0  0  0  0  0  0  0  0  0
    9.5108    0.4996   21.2720 C   0  0  0  0  0  0  0  0  0  0  0  0
    8.6245   -0.6391   21.6314 C   0  0  0  0  0  0  0  0  0  0  0  0
    8.7826   -1.3888   22.6961 N   0  0  0  0  0  0  0  0  0  0  0  0
    7.6986   -2.2159   22.6692 C   0  0  0  0  0  0  0  0  0  0  0  0
    7.4051   -3.2198   23.7601 C   0  0  0  0  0  0  0  0  0  0  0  0
    7.0622   -2.4663   25.0902 C   0  0  0  0  0  0  0  0  0  0  0  0
    7.4390   -3.2648   26.3477 C   0  0  0  0  0  0  0  0  0  0  0  0
    8.9503   -3.6125   26.3913 C   0  0  0  0  0  0  0  0  0  0  0  0
    9.5869   -3.7745   24.9882 C   0  0  0  0  0  0  0  0  0  0  0  0
    8.5595   -4.2514   23.9511 C   0  0  0  0  0  0  0  0  0  0  0  0
    6.8811   -2.0084   21.6602 N   0  0  0  0  0  0  0  0  0  0  0  0
    7.4811   -0.9921   20.9763 N   0  0  0  0  0  0  0  0  0  0  0  0
    6.7990   -0.3480   19.8984 C   0  0  0  0  0  0  0  0  0  0  0  0
    5.6088    0.3453   20.1444 C   0  0  0  0  0  0  0  0  0  0  0  0
    5.0106    1.0296   19.0829 C   0  0  0  0  0  0  0  0  0  0  0  0
    5.6111    0.9811   17.8182 C   0  0  0  0  0  0  0  0  0  0  0  0
    6.7271    0.2813   17.5651 N   0  0  0  0  0  0  0  0  0  0  0  0
    7.2965   -0.3777   18.5838 C   0  0  0  0  0  0  0  0  0  0  0  0
    9.8017    2.0609   23.1443 N   0  0  0  0  0  0  0  0  0  0  0  0
    9.2324    3.2025   23.7436 C   0  0  0  0  0  0  0  0  0  0  0  0
  1  2  2  0
  2  3  1  0
  3  4  2  0
  4  5  1  0
  5  6  1  0
  6  7  2  0
  7  8  1  0
  8  9  1  0
  9 10  1  0
 10 11  1  0
 11 12  1  0
 12 13  1  0
 13 14  1  0
  8 15  2  0
 15 16  1  0
 16 17  1  0
 17 18  2  0
 18 19  1  0
 19 20  2  0
 20 21  1  0
 21 22  2  0
  4 23  1  0
 23 24  2  0
 24  1  1  0
 16  6  1  0
 22 17  1  0
 14  9  1  0
M  END
>  <cnnaffinity>  (284) 
-6.20288

>  <filename>  (284) 
c1ccc(Cc2nc(C3CCCCC3)nn2-c2cccnc2)nc1

>  <enamine_id>  (284) 
PV-007021305877

$$$$

     RDKit          3D

 25 28  0  0  0  0  0  0  0  0999 V2000
    7.8866   -4.7037   25.9103 C   0  0  0  0  0  0  0  0  0  0  0  0
    8.4244   -5.0607   24.7404 C   0  0  0  0  0  0  0  0  0  0  0  0
    8.4674   -4.1523   23.5361 C   0  0  0  0  0  0  0  0  0  0  0  0
    7.4597   -2.9785   23.6394 C   0  0  2  0  0  0  0  0  0  0  0  0
    7.6678   -1.9663   22.5555 C   0  0  0  0  0  0  0  0  0  0  0  0
    6.7423   -1.6190   21.6896 N   0  0  0  0  0  0  0  0  0  0  0  0
    7.3614   -0.6690   20.9383 N   0  0  0  0  0  0  0  0  0  0  0  0
    6.6605    0.0089   19.9016 C   0  0  0  0  0  0  0  0  0  0  0  0
    5.4402    0.6441   20.1654 C   0  0  0  0  0  0  0  0  0  0  0  0
    4.8120    1.3105   19.1088 C   0  0  0  0  0  0  0  0  0  0  0  0
    5.4012    1.2962   17.8372 C   0  0  0  0  0  0  0  0  0  0  0  0
    6.5607    0.6741   17.5759 N   0  0  0  0  0  0  0  0  0  0  0  0
    7.1704    0.0560   18.5928 C   0  0  0  0  0  0  0  0  0  0  0  0
    8.6232   -0.4796   21.4260 C   0  0  0  0  0  0  0  0  0  0  0  0
    9.5205    0.6163   20.9546 C   0  0  0  0  0  0  0  0  0  0  0  0
    9.0440    2.0155   21.3847 C   0  0  0  0  0  0  0  0  0  0  0  0
    9.0197    2.1883   22.9097 C   0  0  0  0  0  0  0  0  0  0  0  0
    8.6414    3.5274   23.3259 N   0  0  0  0  0  0  0  0  0  0  0  0
    9.4626    4.5985   23.4453 C   0  0  0  0  0  0  0  0  0  0  0  0
    8.6654    5.6856   23.7150 C   0  0  0  0  0  0  0  0  0  0  0  0
    7.3552    5.1613   23.7214 C   0  0  0  0  0  0  0  0  0  0  0  0
    7.3528    3.8580   23.4787 N   0  0  0  0  0  0  0  0  0  0  0  0
    8.8481   -1.2975   22.4315 N   0  0  0  0  0  0  0  0  0  0  0  0
    7.5353   -2.3387   25.0453 C   0  0  0  0  0  0  0  0  0  0  0  0
    7.2035   -3.3738   26.1322 C   0  0  0  0  0  0  0  0  0  0  0  0
  1  2  2  0
  2  3  1  0
  3  4  1  0
  4  5  1  6
  5  6  2  0
  6  7  1  0
  7  8  1  0
  8  9  2  0
  9 10  1  0
 10 11  2  0
 11 12  1  0
 12 13  2  0
  7 14  1  0
 14 15  1  0
 15 16  1  0
 16 17  1  0
 17 18  1  0
 18 19  1  0
 19 20  2  0
 20 21  1  0
 21 22  2  0
 14 23  2  0
  4 24  1  0
 24 25  1  0
 25  1  1  0
 23  5  1  0
 13  8  1  0
 22 18  1  0
M  END
>  <cnnaffinity>  (285) 
-6.20191

>  <filename>  (285) 
C1=CCC(c2nc(CCCn3cccn3)n(-c3cccnc3)n2)CC1

>  <enamine_id>  (285) 
PV-006795156831

$$$$

     RDKit          3D

 25 28  0  0  0  0  0  0  0  0999 V2000
    9.5953    4.2596   25.4271 F   0  0  0  0  0  0  0  0  0  0  0  0
    9.8639    3.4152   24.4227 C   0  0  0  0  0  0  0  0  0  0  0  0
   11.1686    2.9333   24.2618 C   0  0  0  0  0  0  0  0  0  0  0  0
   11.3865    2.0014   23.2597 C   0  0  0  0  0  0  0  0  0  0  0  0
   10.3132    1.6464   22.4236 C   0  0  0  0  0  0  0  0  0  0  0  0
   10.6155    0.7382   21.4701 O   0  0  0  0  0  0  0  0  0  0  0  0
    9.5988    0.1633   20.6484 C   0  0  0  0  0  0  0  0  0  0  0  0
    8.5643   -0.6561   21.3654 C   0  0  0  0  0  0  0  0  0  0  0  0
    8.7519   -1.4462   22.3985 N   0  0  0  0  0  0  0  0  0  0  0  0
    7.5240   -1.9869   22.6094 C   0  0  0  0  0  0  0  0  0  0  0  0
    7.2883   -2.9494   23.7429 C   0  0  0  0  0  0  0  0  0  0  0  0
    6.1684   -3.9786   23.4985 C   0  0  0  0  0  0  0  0  0  0  0  0
    6.4508   -5.1224   24.4909 C   0  0  0  0  0  0  0  0  0  0  0  0
    7.9500   -5.0206   24.8708 C   0  0  0  0  0  0  0  0  0  0  0  0
    8.5164   -3.8205   24.0933 C   0  0  0  0  0  0  0  0  0  0  0  0
    6.5951   -1.5778   21.7593 N   0  0  0  0  0  0  0  0  0  0  0  0
    7.2762   -0.7496   20.9267 N   0  0  0  0  0  0  0  0  0  0  0  0
    6.6062   -0.0616   19.8774 C   0  0  0  0  0  0  0  0  0  0  0  0
    5.4069    0.6146   20.1345 C   0  0  0  0  0  0  0  0  0  0  0  0
    4.8044    1.3124   19.0848 C   0  0  0  0  0  0  0  0  0  0  0  0
    5.4030    1.3027   17.8194 C   0  0  0  0  0  0  0  0  0  0  0  0
    6.5301    0.6253   17.5542 N   0  0  0  0  0  0  0  0  0  0  0  0
    7.1073   -0.0380   18.5613 C   0  0  0  0  0  0  0  0  0  0  0  0
    9.0903    2.1363   22.5460 N   0  0  0  0  0  0  0  0  0  0  0  0
    8.8621    2.9970   23.5584 C   0  0  0  0  0  0  0  0  0  0  0  0
  1  2  1  0
  2  3  2  0
  3  4  1  0
  4  5  2  0
  5  6  1  0
  6  7  1  0
  7  8  1  0
  8  9  2  0
  9 10  1  0
 10 11  1  0
 11 12  1  0
 12 13  1  0
 13 14  1  0
 14 15  1  0
 10 16  2  0
 16 17  1  0
 17 18  1  0
 18 19  2  0
 19 20  1  0
 20 21  2  0
 21 22  1  0
 22 23  2  0
  5 24  1  0
 24 25  2  0
 25  2  1  0
 17  8  1  0
 23 18  1  0
 15 11  1  0
M  END
>  <cnnaffinity>  (286) 
-6.20158

>  <filename>  (286) 
Fc1ccc(OCc2nc(C3CCCC3)nn2-c2cccnc2)nc1

>  <enamine_id>  (286) 
PV-007104228666

$$$$

     RDKit          3D

 24 26  0  0  0  0  0  0  0  0999 V2000
    8.3352   -5.5357   24.6596 C   0  0  0  0  0  0  0  0  0  0  0  0
    7.4376   -4.5768   23.8894 C   0  0  0  0  0  0  0  0  0  0  0  0
    7.7160   -4.5648   22.4946 O   0  0  0  0  0  0  0  0  0  0  0  0
    8.5689   -3.5332   22.0233 C   0  0  0  0  0  0  0  0  0  0  0  0
    7.9597   -2.1567   21.8688 C   0  0  0  0  0  0  0  0  0  0  0  0
    7.5426   -1.7432   20.6904 N   0  0  0  0  0  0  0  0  0  0  0  0
    7.1041   -0.4843   20.9279 N   0  0  0  0  0  0  0  0  0  0  0  0
    6.4637    0.2131   19.8630 C   0  0  0  0  0  0  0  0  0  0  0  0
    5.2655    0.9250   20.0045 C   0  0  0  0  0  0  0  0  0  0  0  0
    4.7130    1.5078   18.8543 C   0  0  0  0  0  0  0  0  0  0  0  0
    5.3824    1.3890   17.6315 C   0  0  0  0  0  0  0  0  0  0  0  0
    6.5300    0.7029   17.4906 N   0  0  0  0  0  0  0  0  0  0  0  0
    7.0378    0.1193   18.5796 C   0  0  0  0  0  0  0  0  0  0  0  0
    7.3684   -0.1635   22.2353 C   0  0  0  0  0  0  0  0  0  0  0  0
    7.2658    1.2093   22.8404 C   0  0  0  0  0  0  0  0  0  0  0  0
    8.5937    1.6401   23.4701 C   0  0  0  0  0  0  0  0  0  0  0  0
    8.8664    1.4589   24.8396 C   0  0  0  0  0  0  0  0  0  0  0  0
    7.6167    0.9546   25.9597 Cl  0  0  0  0  0  0  0  0  0  0  0  0
   10.1377    1.6939   25.3764 C   0  0  0  0  0  0  0  0  0  0  0  0
   11.1406    2.2156   24.5622 C   0  0  0  0  0  0  0  0  0  0  0  0
   10.8858    2.4324   23.2051 C   0  0  0  0  0  0  0  0  0  0  0  0
    9.6445    2.1078   22.6435 C   0  0  0  0  0  0  0  0  0  0  0  0
    9.4575    2.2766   21.1575 C   0  0  0  0  0  0  0  0  0  0  0  0
    7.8810   -1.2212   22.8514 N   0  0  0  0  0  0  0  0  0  0  0  0
  1  2  1  0
  2  3  1  0
  3  4  1  0
  4  5  1  0
  5  6  2  0
  6  7  1  0
  7  8  1  0
  8  9  2  0
  9 10  1  0
 10 11  2  0
 11 12  1  0
 12 13  2  0
  7 14  1  0
 14 15  1  0
 15 16  1  0
 16 17  2  0
 17 18  1  0
 17 19  1  0
 19 20  2  0
 20 21  1  0
 21 22  2  0
 22 23  1  0
 14 24  2  0
 24  5  1  0
 13  8  1  0
 22 16  1  0
M  END
>  <cnnaffinity>  (287) 
-6.19958

>  <filename>  (287) 
CCOCc1nc(Cc2c(C)cccc2Cl)n(-c2cccnc2)n1

>  <enamine_id>  (287) 
PV-007106327102

$$$$

     RDKit          3D

 23 26  0  0  0  0  0  0  0  0999 V2000
   11.7171    2.4906   24.5998 Br  0  0  0  0  0  0  0  0  0  0  0  0
   11.5499    1.3848   23.0769 C   0  0  0  0  0  0  0  0  0  0  0  0
   10.5139    1.4752   22.2053 C   0  0  0  0  0  0  0  0  0  0  0  0
   10.6741    0.4326   21.3306 N   0  0  0  0  0  0  0  0  0  0  0  0
    9.5729   -0.0239   20.4684 C   0  0  0  0  0  0  0  0  0  0  0  0
    8.5423   -0.7911   21.2492 C   0  0  0  0  0  0  0  0  0  0  0  0
    8.7730   -1.5308   22.2933 N   0  0  0  0  0  0  0  0  0  0  0  0
    7.5137   -1.9906   22.6431 C   0  0  0  0  0  0  0  0  0  0  0  0
    7.2983   -2.9327   23.8078 C   0  0  0  0  0  0  0  0  0  0  0  0
    7.4700   -2.2009   25.1402 C   0  0  0  0  0  0  0  0  0  0  0  0
    8.9524   -2.3196   25.4877 C   0  0  0  0  0  0  0  0  0  0  0  0
    9.4908   -3.5346   24.7317 C   0  0  0  0  0  0  0  0  0  0  0  0
    8.3537   -4.0477   23.8482 C   0  0  0  0  0  0  0  0  0  0  0  0
    6.5447   -1.5506   21.8738 N   0  0  0  0  0  0  0  0  0  0  0  0
    7.1856   -0.7848   20.9620 N   0  0  0  0  0  0  0  0  0  0  0  0
    6.5698   -0.0714   19.9286 C   0  0  0  0  0  0  0  0  0  0  0  0
    5.3506    0.5835   20.1307 C   0  0  0  0  0  0  0  0  0  0  0  0
    4.8059    1.2836   19.0539 C   0  0  0  0  0  0  0  0  0  0  0  0
    5.4705    1.3180   17.8230 C   0  0  0  0  0  0  0  0  0  0  0  0
    6.6449    0.6914   17.6282 N   0  0  0  0  0  0  0  0  0  0  0  0
    7.1763    0.0193   18.6637 C   0  0  0  0  0  0  0  0  0  0  0  0
   11.8627   -0.2172   21.6849 C   0  0  0  0  0  0  0  0  0  0  0  0
   12.4034    0.3479   22.7364 N   0  0  0  0  0  0  0  0  0  0  0  0
  1  2  1  0
  2  3  2  0
  3  4  1  0
  4  5  1  0
  5  6  1  0
  6  7  2  0
  7  8  1  0
  8  9  1  0
  9 10  1  0
 10 11  1  0
 11 12  1  0
 12 13  1  0
  8 14  2  0
 14 15  1  0
 15 16  1  0
 16 17  2  0
 17 18  1  0
 18 19  2  0
 19 20  1  0
 20 21  2  0
  4 22  1  0
 22 23  2  0
 23  2  1  0
 15  6  1  0
 21 16  1  0
 13  9  1  0
M  END
>  <cnnaffinity>  (288) 
-6.1974

>  <filename>  (288) 
Brc1cn(Cc2nc(C3CCCC3)nn2-c2cccnc2)cn1

>  <enamine_id>  (288) 
PV-007035298172

$$$$

     RDKit          3D

 25 28  0  0  0  0  0  0  0  0999 V2000
   11.4319    2.3641   22.8424 F   0  0  0  0  0  0  0  0  0  0  0  0
   10.7283    1.8096   23.8544 C   0  0  0  0  0  0  0  0  0  0  0  0
   11.4383    1.2940   24.9321 C   0  0  0  0  0  0  0  0  0  0  0  0
   10.7267    0.7239   25.9887 C   0  0  0  0  0  0  0  0  0  0  0  0
    9.3328    0.7133   25.9749 C   0  0  0  0  0  0  0  0  0  0  0  0
    8.6392    1.2375   24.8776 C   0  0  0  0  0  0  0  0  0  0  0  0
    6.8998    1.2106   24.8615 Cl  0  0  0  0  0  0  0  0  0  0  0  0
    9.3241    1.7665   23.7634 C   0  0  0  0  0  0  0  0  0  0  0  0
    8.6068    2.2252   22.7104 O   0  0  0  0  0  0  0  0  0  0  0  0
    9.0441    2.0449   21.3585 C   0  0  0  0  0  0  0  0  0  0  0  0
    9.5337    0.6287   21.0038 C   0  0  0  0  0  0  0  0  0  0  0  0
    8.6209   -0.4525   21.4601 C   0  0  0  0  0  0  0  0  0  0  0  0
    8.8706   -1.3407   22.3981 N   0  0  0  0  0  0  0  0  0  0  0  0
    7.6687   -1.9632   22.5509 C   0  0  0  0  0  0  0  0  0  0  0  0
    7.4357   -2.9663   23.6132 C   0  0  0  0  0  0  0  0  0  0  0  0
    8.3876   -4.1158   23.7874 C   0  0  0  0  0  0  0  0  0  0  0  0
    6.9973   -4.3656   23.2783 C   0  0  0  0  0  0  0  0  0  0  0  0
    6.7194   -1.5580   21.7306 N   0  0  0  0  0  0  0  0  0  0  0  0
    7.3523   -0.6096   20.9875 N   0  0  0  0  0  0  0  0  0  0  0  0
    6.6719    0.0295   19.9114 C   0  0  0  0  0  0  0  0  0  0  0  0
    5.4441    0.6522   20.1553 C   0  0  0  0  0  0  0  0  0  0  0  0
    4.8206    1.3131   19.0962 C   0  0  0  0  0  0  0  0  0  0  0  0
    5.4236    1.3025   17.8341 C   0  0  0  0  0  0  0  0  0  0  0  0
    6.5730    0.6565   17.5790 N   0  0  0  0  0  0  0  0  0  0  0  0
    7.1756    0.0319   18.5975 C   0  0  0  0  0  0  0  0  0  0  0  0
  1  2  1  0
  2  3  2  0
  3  4  1  0
  4  5  2  0
  5  6  1  0
  6  7  1  0
  6  8  2  0
  8  9  1  0
  9 10  1  0
 10 11  1  0
 11 12  1  0
 12 13  2  0
 13 14  1  0
 14 15  1  0
 15 16  1  0
 16 17  1  0
 14 18  2  0
 18 19  1  0
 19 20  1  0
 20 21  2  0
 21 22  1  0
 22 23  2  0
 23 24  1  0
 24 25  2  0
  8  2  1  0
 19 12  1  0
 25 20  1  0
 17 15  1  0
M  END
>  <cnnaffinity>  (289) 
-6.19578

>  <filename>  (289) 
Fc1cccc(Cl)c1OCCc1nc(C2CC2)nn1-c1cccnc1

>  <enamine_id>  (289) 
PV-006859174578

$$$$

     RDKit          3D

 25 28  0  0  0  0  0  0  0  0999 V2000
    8.8131    1.9626   25.6651 C   0  0  0  0  0  0  0  0  0  0  0  0
    7.6034    1.8856   24.9630 C   0  0  0  0  0  0  0  0  0  0  0  0
    7.6477    1.9319   23.5662 C   0  0  0  0  0  0  0  0  0  0  0  0
    8.8921    2.0446   22.9206 C   0  0  0  0  0  0  0  0  0  0  0  0
    9.0253    1.9640   21.4120 C   0  0  0  0  0  0  0  0  0  0  0  0
    9.4975    0.5521   20.9320 C   0  0  0  0  0  0  0  0  0  0  0  0
    8.6171   -0.5821   21.3850 C   0  0  0  0  0  0  0  0  0  0  0  0
    8.8614   -1.4140   22.3815 N   0  0  0  0  0  0  0  0  0  0  0  0
    7.6629   -2.0256   22.5911 C   0  0  0  0  0  0  0  0  0  0  0  0
    7.4489   -2.9797   23.7573 C   0  0  0  0  0  0  0  0  0  0  0  0
    6.9329   -4.3922   23.3078 C   0  0  0  0  0  0  0  0  0  0  0  0
    6.2321   -5.1692   24.4501 C   0  0  0  0  0  0  0  0  0  0  0  0
    5.0073   -4.3865   25.0133 C   0  0  0  0  0  0  0  0  0  0  0  0
    5.0655   -2.8972   24.6298 C   0  0  0  0  0  0  0  0  0  0  0  0
    6.4873   -2.3599   24.8363 C   0  0  0  0  0  0  0  0  0  0  0  0
    6.7056   -1.6450   21.7590 N   0  0  0  0  0  0  0  0  0  0  0  0
    7.3352   -0.7442   20.9520 N   0  0  0  0  0  0  0  0  0  0  0  0
    6.6398   -0.0809   19.8991 C   0  0  0  0  0  0  0  0  0  0  0  0
    5.4419    0.5940   20.1557 C   0  0  0  0  0  0  0  0  0  0  0  0
    4.8375    1.2983   19.1099 C   0  0  0  0  0  0  0  0  0  0  0  0
    5.4412    1.2965   17.8472 C   0  0  0  0  0  0  0  0  0  0  0  0
    6.5727    0.6260   17.5814 N   0  0  0  0  0  0  0  0  0  0  0  0
    7.1474   -0.0461   18.5847 C   0  0  0  0  0  0  0  0  0  0  0  0
   10.0496    2.1219   23.6000 N   0  0  0  0  0  0  0  0  0  0  0  0
    9.9972    2.0861   24.9343 C   0  0  0  0  0  0  0  0  0  0  0  0
  1  2  2  0
  2  3  1  0
  3  4  2  0
  4  5  1  0
  5  6  1  0
  6  7  1  0
  7  8  2  0
  8  9  1  0
  9 10  1  0
 10 11  1  0
 11 12  1  0
 12 13  1  0
 13 14  1  0
 14 15  1  0
  9 16  2  0
 16 17  1  0
 17 18  1  0
 18 19  2  0
 19 20  1  0
 20 21  2  0
 21 22  1  0
 22 23  2  0
  4 24  1  0
 24 25  2  0
 25  1  1  0
 17  7  1  0
 23 18  1  0
 15 10  1  0
M  END
>  <cnnaffinity>  (290) 
-6.19555

>  <filename>  (290) 
c1ccc(CCc2nc(C3CCCCC3)nn2-c2cccnc2)nc1

>  <enamine_id>  (290) 
PV-006740155259

$$$$

     RDKit          3D

 27 30  0  0  0  0  0  0  0  0999 V2000
    8.1767    2.5133   21.6722 C   0  0  0  0  0  0  0  0  0  0  0  0
    9.5031    1.7958   21.8624 C   0  0  2  0  0  0  0  0  0  0  0  0
    9.5910    0.5168   20.9881 C   0  0  0  0  0  0  0  0  0  0  0  0
    8.6384   -0.5577   21.3818 C   0  0  0  0  0  0  0  0  0  0  0  0
    8.8597   -1.4336   22.3399 N   0  0  0  0  0  0  0  0  0  0  0  0
    7.6554   -2.0362   22.4948 C   0  0  0  0  0  0  0  0  0  0  0  0
    7.3993   -3.0048   23.6123 C   0  0  0  0  0  0  0  0  0  0  0  0
    6.4875   -4.1701   23.1641 C   0  0  0  0  0  0  0  0  0  0  0  0
    6.3153   -5.2227   24.2865 C   0  0  0  0  0  0  0  0  0  0  0  0
    6.4011   -4.6382   25.7012 C   0  0  0  0  0  0  0  0  0  0  0  0
    7.6985   -4.7424   26.1554 F   0  0  0  0  0  0  0  0  0  0  0  0
    5.6288   -5.3866   26.5514 F   0  0  0  0  0  0  0  0  0  0  0  0
    5.9685   -3.1847   25.7844 C   0  0  0  0  0  0  0  0  0  0  0  0
    6.8225   -2.2665   24.8732 C   0  0  0  0  0  0  0  0  0  0  0  0
    6.7127   -1.6188   21.6666 N   0  0  0  0  0  0  0  0  0  0  0  0
    7.3578   -0.6878   20.9176 N   0  0  0  0  0  0  0  0  0  0  0  0
    6.6561   -0.0016   19.8928 C   0  0  0  0  0  0  0  0  0  0  0  0
    5.4399    0.6357   20.1594 C   0  0  0  0  0  0  0  0  0  0  0  0
    4.8099    1.3086   19.1071 C   0  0  0  0  0  0  0  0  0  0  0  0
    5.3956    1.2975   17.8364 C   0  0  0  0  0  0  0  0  0  0  0  0
    6.5496    0.6672   17.5711 N   0  0  0  0  0  0  0  0  0  0  0  0
    7.1614    0.0416   18.5824 C   0  0  0  0  0  0  0  0  0  0  0  0
    9.7528    1.5216   23.2734 N   0  0  0  0  0  0  0  0  0  0  0  0
    8.8281    1.1459   24.2280 C   0  0  0  0  0  0  0  0  0  0  0  0
    9.5541    0.8439   25.3447 C   0  0  0  0  0  0  0  0  0  0  0  0
   10.8966    1.0077   25.1101 N   0  0  0  0  0  0  0  0  0  0  0  0
   10.9759    1.4022   23.8643 C   0  0  0  0  0  0  0  0  0  0  0  0
  2  1  1  1
  2  3  1  0
  3  4  1  0
  4  5  2  0
  5  6  1  0
  6  7  1  0
  7  8  1  0
  8  9  1  0
  9 10  1  0
 10 11  1  0
 10 12  1  0
 10 13  1  0
 13 14  1  0
  6 15  2  0
 15 16  1  0
 16 17  1  0
 17 18  2  0
 18 19  1  0
 19 20  2  0
 20 21  1  0
 21 22  2  0
  2 23  1  0
 23 24  1  0
 24 25  2  0
 25 26  1  0
 26 27  2  0
 16  4  1  0
 22 17  1  0
 27 23  1  0
 14  7  1  0
M  END
>  <cnnaffinity>  (291) 
-6.19552

>  <filename>  (291) 
CC(Cc1nc(C2CCC(F)(F)CC2)nn1-c1cccnc1)n1ccnc1

>  <enamine_id>  (291) 
PV-006990203921

$$$$

     RDKit          3D

 24 27  0  0  0  0  0  0  0  0999 V2000
    9.6567    2.2471   21.1216 C   0  0  0  0  0  0  0  0  0  0  0  0
    9.7724    2.2304   22.6124 C   0  0  0  0  0  0  0  0  0  0  0  0
   10.9337    2.6638   23.1141 N   0  0  0  0  0  0  0  0  0  0  0  0
   11.1429    2.5287   24.4272 C   0  0  0  0  0  0  0  0  0  0  0  0
   10.2177    1.9614   25.2984 C   0  0  0  0  0  0  0  0  0  0  0  0
    8.9731    1.5862   24.7852 C   0  0  0  0  0  0  0  0  0  0  0  0
    8.7235    1.7344   23.4195 C   0  0  0  0  0  0  0  0  0  0  0  0
    7.4194    1.2265   22.8016 C   0  0  0  0  0  0  0  0  0  0  0  0
    7.5422   -0.1627   22.2313 C   0  0  0  0  0  0  0  0  0  0  0  0
    8.0376   -1.1672   22.9269 N   0  0  0  0  0  0  0  0  0  0  0  0
    8.0791   -2.1860   22.0369 C   0  0  0  0  0  0  0  0  0  0  0  0
    8.6362   -3.5414   22.3863 C   0  0  0  0  0  0  0  0  0  0  0  0
    8.6733   -3.8978   23.8976 C   0  0  0  0  0  0  0  0  0  0  0  0
    8.6030   -5.4453   23.9858 C   0  0  0  0  0  0  0  0  0  0  0  0
    8.2466   -5.9541   22.5725 C   0  0  0  0  0  0  0  0  0  0  0  0
    7.8699   -4.7203   21.7422 C   0  0  0  0  0  0  0  0  0  0  0  0
    7.6545   -1.8744   20.8217 N   0  0  0  0  0  0  0  0  0  0  0  0
    7.2565   -0.5830   20.9585 N   0  0  0  0  0  0  0  0  0  0  0  0
    6.5771    0.0502   19.8739 C   0  0  0  0  0  0  0  0  0  0  0  0
    5.3700    0.7329   20.0724 C   0  0  0  0  0  0  0  0  0  0  0  0
    4.7835    1.3778   18.9769 C   0  0  0  0  0  0  0  0  0  0  0  0
    5.4244    1.3266   17.7363 C   0  0  0  0  0  0  0  0  0  0  0  0
    6.5585    0.6339   17.5307 N   0  0  0  0  0  0  0  0  0  0  0  0
    7.1036   -0.0098   18.5693 C   0  0  0  0  0  0  0  0  0  0  0  0
  1  2  1  0
  2  3  2  0
  3  4  1  0
  4  5  2  0
  5  6  1  0
  6  7  2  0
  7  8  1  0
  8  9  1  0
  9 10  2  0
 10 11  1  0
 11 12  1  0
 12 13  1  0
 13 14  1  0
 14 15  1  0
 15 16  1  0
 11 17  2  0
 17 18  1  0
 18 19  1  0
 19 20  2  0
 20 21  1  0
 21 22  2  0
 22 23  1  0
 23 24  2  0
  7  2  1  0
 18  9  1  0
 24 19  1  0
 16 12  1  0
M  END
>  <cnnaffinity>  (292) 
-6.19441

>  <filename>  (292) 
Cc1ncccc1Cc1nc(C2CCCC2)nn1-c1cccnc1

>  <enamine_id>  (292) 
PV-007076485402

$$$$

     RDKit          3D

 25 27  0  0  0  0  0  0  0  0999 V2000
    8.2983   -6.0093   22.6365 C   0  0  0  0  0  0  0  0  0  0  0  0
    7.5799   -4.6521   22.5113 C   0  0  0  0  0  0  0  0  0  0  0  0
    6.8283   -4.3099   23.8008 C   0  0  0  0  0  0  0  0  0  0  0  0
    8.5883   -3.5443   22.0977 C   0  0  0  0  0  0  0  0  0  0  0  0
    8.0293   -2.1695   21.9365 C   0  0  0  0  0  0  0  0  0  0  0  0
    7.5067   -1.8150   20.7816 N   0  0  0  0  0  0  0  0  0  0  0  0
    7.0990   -0.5421   20.9927 N   0  0  0  0  0  0  0  0  0  0  0  0
    6.4684    0.1501   19.9187 C   0  0  0  0  0  0  0  0  0  0  0  0
    5.2734    0.8729   20.0556 C   0  0  0  0  0  0  0  0  0  0  0  0
    4.7324    1.4653   18.9048 C   0  0  0  0  0  0  0  0  0  0  0  0
    5.4105    1.3396   17.6867 C   0  0  0  0  0  0  0  0  0  0  0  0
    6.5544    0.6438   17.5501 N   0  0  0  0  0  0  0  0  0  0  0  0
    7.0463    0.0480   18.6367 C   0  0  0  0  0  0  0  0  0  0  0  0
    7.4605   -0.1712   22.2626 C   0  0  0  0  0  0  0  0  0  0  0  0
    7.2625    1.1922   22.8380 C   0  0  0  0  0  0  0  0  0  0  0  0
    8.3232    1.6284   23.8782 C   0  0  0  0  0  0  0  0  0  0  0  0
    8.0012    2.9989   24.4404 C   0  0  0  0  0  0  0  0  0  0  0  0
    7.2532    3.1651   25.6189 C   0  0  0  0  0  0  0  0  0  0  0  0
    6.8644    4.4397   26.0349 C   0  0  0  0  0  0  0  0  0  0  0  0
    6.1196    4.5622   27.1470 F   0  0  0  0  0  0  0  0  0  0  0  0
    7.2130    5.5840   25.3257 C   0  0  0  0  0  0  0  0  0  0  0  0
    7.9880    5.4425   24.1689 C   0  0  0  0  0  0  0  0  0  0  0  0
    8.3621    4.1657   23.7478 C   0  0  0  0  0  0  0  0  0  0  0  0
    9.0916    4.0557   22.6194 F   0  0  0  0  0  0  0  0  0  0  0  0
    8.0191   -1.1993   22.8836 N   0  0  0  0  0  0  0  0  0  0  0  0
  1  2  1  0
  2  3  1  0
  2  4  1  0
  4  5  1  0
  5  6  2  0
  6  7  1  0
  7  8  1  0
  8  9  2  0
  9 10  1  0
 10 11  2  0
 11 12  1  0
 12 13  2  0
  7 14  1  0
 14 15  1  0
 15 16  1  0
 16 17  1  0
 17 18  2  0
 18 19  1  0
 19 20  1  0
 19 21  2  0
 21 22  1  0
 22 23  2  0
 23 24  1  0
 14 25  2  0
 25  5  1  0
 13  8  1  0
 23 17  1  0
M  END
>  <cnnaffinity>  (293) 
-6.1934

>  <filename>  (293) 
CC(C)Cc1nc(CCc2cc(F)ccc2F)n(-c2cccnc2)n1

>  <enamine_id>  (293) 
PV-007141080387

$$$$

     RDKit          3D

 27 29  0  0  0  0  0  0  0  0999 V2000
   13.1647    3.7686   23.2427 C   0  0  0  0  0  0  0  0  0  0  0  0
   12.1435    2.8675   23.6814 O   0  0  0  0  0  0  0  0  0  0  0  0
   10.8901    3.1851   23.2709 C   0  0  0  0  0  0  0  0  0  0  0  0
   10.6194    4.2424   22.7290 O   0  0  0  0  0  0  0  0  0  0  0  0
    9.9857    2.1819   23.5131 N   0  0  0  0  0  0  0  0  0  0  0  0
   10.3177    1.0349   24.3690 C   0  0  0  0  0  0  0  0  0  0  0  0
    8.7416    2.2321   22.7250 C   0  0  0  0  0  0  0  0  0  0  0  0
    8.9762    1.9859   21.2268 C   0  0  0  0  0  0  0  0  0  0  0  0
    9.4993    0.5772   20.9018 C   0  0  0  0  0  0  0  0  0  0  0  0
    8.6191   -0.5252   21.3868 C   0  0  0  0  0  0  0  0  0  0  0  0
    8.8475   -1.3604   22.3841 N   0  0  0  0  0  0  0  0  0  0  0  0
    7.6537   -1.9972   22.5318 C   0  0  0  0  0  0  0  0  0  0  0  0
    7.4040   -2.9678   23.6526 C   0  0  2  0  0  0  0  0  0  0  0  0
    6.7173   -4.2659   23.1626 C   0  0  0  0  0  0  0  0  0  0  0  0
    6.4486   -5.2350   24.3230 C   0  0  0  0  0  0  0  0  0  0  0  0
    5.6236   -4.5881   25.4509 C   0  0  1  0  0  0  0  0  0  0  0  0
    5.3571   -5.5729   26.5957 C   0  0  0  0  0  0  0  0  0  0  0  0
    6.3227   -3.3097   25.9511 C   0  0  0  0  0  0  0  0  0  0  0  0
    6.6067   -2.3123   24.8169 C   0  0  0  0  0  0  0  0  0  0  0  0
    6.7201   -1.6282   21.6726 N   0  0  0  0  0  0  0  0  0  0  0  0
    7.3571   -0.7047   20.9075 N   0  0  0  0  0  0  0  0  0  0  0  0
    6.6620   -0.0333   19.8611 C   0  0  0  0  0  0  0  0  0  0  0  0
    5.4552    0.6206   20.1305 C   0  0  0  0  0  0  0  0  0  0  0  0
    4.8372    1.3174   19.0883 C   0  0  0  0  0  0  0  0  0  0  0  0
    5.4322    1.3147   17.8198 C   0  0  0  0  0  0  0  0  0  0  0  0
    6.5710    0.6605   17.5460 N   0  0  0  0  0  0  0  0  0  0  0  0
    7.1641   -0.0009   18.5469 C   0  0  0  0  0  0  0  0  0  0  0  0
  1  2  1  0
  2  3  1  0
  3  4  2  0
  3  5  1  0
  5  6  1  0
  5  7  1  0
  7  8  1  0
  8  9  1  0
  9 10  1  0
 10 11  2  0
 11 12  1  0
 13 12  1  6
 13 14  1  0
 14 15  1  0
 15 16  1  0
 16 17  1  1
 16 18  1  0
 18 19  1  0
 12 20  2  0
 20 21  1  0
 21 22  1  0
 22 23  2  0
 23 24  1  0
 24 25  2  0
 25 26  1  0
 26 27  2  0
 21 10  1  0
 27 22  1  0
 19 13  1  0
M  END
>  <cnnaffinity>  (294) 
-6.19286

>  <filename>  (294) 
COC(=O)N(C)CCCc1nc(C2CCC(C)CC2)nn1-c1cccnc1

>  <enamine_id>  (294) 
PV-007124194041

$$$$

     RDKit          3D

 26 28  0  0  0  0  0  0  0  0999 V2000
    8.4124   -5.7815   23.2311 C   0  0  0  0  0  0  0  0  0  0  0  0
    7.5585   -4.5216   23.0184 C   0  0  0  0  0  0  0  0  0  0  0  0
    7.1949   -3.9166   24.3870 C   0  0  0  0  0  0  0  0  0  0  0  0
    6.2802   -4.9472   22.2472 C   0  0  0  0  0  0  0  0  0  0  0  0
    5.3552   -3.9271   21.9562 O   0  0  0  0  0  0  0  0  0  0  0  0
    8.4545   -3.5383   22.2060 C   0  0  0  0  0  0  0  0  0  0  0  0
    7.9014   -2.1790   21.9637 C   0  0  0  0  0  0  0  0  0  0  0  0
    7.3185   -1.8492   20.8274 N   0  0  0  0  0  0  0  0  0  0  0  0
    6.9930   -0.5345   21.0137 N   0  0  0  0  0  0  0  0  0  0  0  0
    6.4651    0.1928   19.9178 C   0  0  0  0  0  0  0  0  0  0  0  0
    5.3052    0.9699   20.0180 C   0  0  0  0  0  0  0  0  0  0  0  0
    4.8034    1.5412   18.8414 C   0  0  0  0  0  0  0  0  0  0  0  0
    5.4933    1.3472   17.6409 C   0  0  0  0  0  0  0  0  0  0  0  0
    6.6326    0.6367   17.5521 N   0  0  0  0  0  0  0  0  0  0  0  0
    7.0950    0.0668   18.6664 C   0  0  0  0  0  0  0  0  0  0  0  0
    7.3779   -0.1594   22.2695 C   0  0  0  0  0  0  0  0  0  0  0  0
    7.1915    1.1656   22.9366 C   0  0  0  0  0  0  0  0  0  0  0  0
    8.4911    1.6409   23.5596 C   0  0  0  0  0  0  0  0  0  0  0  0
    9.5712    2.0836   22.7800 C   0  0  0  0  0  0  0  0  0  0  0  0
    9.3842    2.2679   21.0729 Cl  0  0  0  0  0  0  0  0  0  0  0  0
   10.8194    2.3523   23.3590 C   0  0  0  0  0  0  0  0  0  0  0  0
   11.0434    2.2029   24.6692 N   0  0  0  0  0  0  0  0  0  0  0  0
   10.0278    1.7885   25.4400 C   0  0  0  0  0  0  0  0  0  0  0  0
    8.7550    1.5255   24.9247 C   0  0  0  0  0  0  0  0  0  0  0  0
    7.7818    1.1314   25.7640 F   0  0  0  0  0  0  0  0  0  0  0  0
    7.9791   -1.1809   22.8681 N   0  0  0  0  0  0  0  0  0  0  0  0
  1  2  1  0
  2  3  1  0
  2  4  1  0
  4  5  1  0
  2  6  1  0
  6  7  1  0
  7  8  2  0
  8  9  1  0
  9 10  1  0
 10 11  2  0
 11 12  1  0
 12 13  2  0
 13 14  1  0
 14 15  2  0
  9 16  1  0
 16 17  1  0
 17 18  1  0
 18 19  2  0
 19 20  1  0
 19 21  1  0
 21 22  2  0
 22 23  1  0
 23 24  2  0
 24 25  1  0
 16 26  2  0
 26  7  1  0
 15 10  1  0
 24 18  1  0
M  END
>  <cnnaffinity>  (295) 
-6.19224

>  <filename>  (295) 
CC(C)(CO)Cc1nc(Cc2c(F)cncc2Cl)n(-c2cccnc2)n1

>  <enamine_id>  (295) 
PV-007089959911

$$$$

     RDKit          3D

 26 29  0  0  0  0  0  0  0  0999 V2000
    7.4293    1.1802   28.2313 C   0  0  0  0  0  0  0  0  0  0  0  0
    7.4047    1.3670   26.7350 C   0  0  0  0  0  0  0  0  0  0  0  0
    6.2422    1.4069   26.0222 C   0  0  0  0  0  0  0  0  0  0  0  0
    6.2099    1.5896   24.5812 C   0  0  0  0  0  0  0  0  0  0  0  0
    5.1846    1.6486   23.9139 O   0  0  0  0  0  0  0  0  0  0  0  0
    7.4887    1.6945   23.9532 N   0  0  0  0  0  0  0  0  0  0  0  0
    7.5598    1.4353   22.5106 C   0  0  0  0  0  0  0  0  0  0  0  0
    7.5894   -0.0391   22.1626 C   0  0  0  0  0  0  0  0  0  0  0  0
    8.0866   -1.0038   22.9063 N   0  0  0  0  0  0  0  0  0  0  0  0
    7.9415   -2.1147   22.1423 C   0  0  0  0  0  0  0  0  0  0  0  0
    8.3349   -3.5033   22.5904 C   0  0  1  0  0  0  0  0  0  0  0  0
    9.5731   -3.4774   23.5234 C   0  0  0  0  0  0  0  0  0  0  0  0
    9.2162   -3.0199   24.9193 C   0  0  0  0  0  0  0  0  0  0  0  0
    7.9912   -3.1118   25.4356 C   0  0  0  0  0  0  0  0  0  0  0  0
    6.8024   -3.6023   24.6482 C   0  0  0  0  0  0  0  0  0  0  0  0
    7.1898   -4.2713   23.3164 C   0  0  0  0  0  0  0  0  0  0  0  0
    7.4064   -1.8936   20.9560 N   0  0  0  0  0  0  0  0  0  0  0  0
    7.1575   -0.5535   20.9749 N   0  0  0  0  0  0  0  0  0  0  0  0
    6.5020    0.0822   19.8913 C   0  0  0  0  0  0  0  0  0  0  0  0
    5.3586    0.8715   20.0758 C   0  0  0  0  0  0  0  0  0  0  0  0
    4.8040    1.4793   18.9436 C   0  0  0  0  0  0  0  0  0  0  0  0
    5.3926    1.2684   17.6938 C   0  0  0  0  0  0  0  0  0  0  0  0
    6.4707    0.4845   17.5140 N   0  0  0  0  0  0  0  0  0  0  0  0
    7.0003   -0.1009   18.5907 C   0  0  0  0  0  0  0  0  0  0  0  0
    8.6487    1.7305   24.6900 C   0  0  0  0  0  0  0  0  0  0  0  0
    8.6453    1.5548   26.0343 C   0  0  0  0  0  0  0  0  0  0  0  0
  1  2  1  0
  2  3  2  0
  3  4  1  0
  4  5  2  0
  4  6  1  0
  6  7  1  0
  7  8  1  0
  8  9  2  0
  9 10  1  0
 11 10  1  1
 11 12  1  0
 12 13  1  0
 13 14  2  0
 14 15  1  0
 15 16  1  0
 10 17  2  0
 17 18  1  0
 18 19  1  0
 19 20  2  0
 20 21  1  0
 21 22  2  0
 22 23  1  0
 23 24  2  0
  6 25  1  0
 25 26  2  0
 26  2  1  0
 18  8  1  0
 24 19  1  0
 16 11  1  0
M  END
>  <cnnaffinity>  (296) 
-6.19158

>  <filename>  (296) 
Cc1ccn(Cc2nc(C3CC=CCC3)nn2-c2cccnc2)c(=O)c1

>  <enamine_id>  (296) 
PV-007038614560

$$$$

     RDKit          3D

 24 27  0  0  0  0  0  0  0  0999 V2000
    8.4990    1.9182   26.9662 F   0  0  0  0  0  0  0  0  0  0  0  0
    8.6328    1.9480   25.6336 C   0  0  0  0  0  0  0  0  0  0  0  0
    7.5483    1.7581   24.8000 C   0  0  0  0  0  0  0  0  0  0  0  0
    7.6535    1.8359   23.4709 N   0  0  0  0  0  0  0  0  0  0  0  0
    8.8710    2.0695   22.9669 C   0  0  0  0  0  0  0  0  0  0  0  0
    9.0407    2.0066   21.4699 C   0  0  0  0  0  0  0  0  0  0  0  0
    9.5276    0.6108   20.9603 C   0  0  0  0  0  0  0  0  0  0  0  0
    8.6531   -0.5223   21.3895 C   0  0  0  0  0  0  0  0  0  0  0  0
    8.8896   -1.3489   22.3943 N   0  0  0  0  0  0  0  0  0  0  0  0
    7.6821   -1.9394   22.5828 C   0  0  0  0  0  0  0  0  0  0  0  0
    7.4100   -2.8344   23.7407 C   0  0  0  0  0  0  0  0  0  0  0  0
    6.4366   -4.0167   23.4671 C   0  0  0  0  0  0  0  0  0  0  0  0
    5.4356   -3.4207   24.4852 C   0  0  0  0  0  0  0  0  0  0  0  0
    6.4120   -2.2651   24.8043 C   0  0  0  0  0  0  0  0  0  0  0  0
    6.7448   -1.5785   21.7252 N   0  0  0  0  0  0  0  0  0  0  0  0
    7.3761   -0.6770   20.9350 N   0  0  0  0  0  0  0  0  0  0  0  0
    6.6588    0.0001   19.9019 C   0  0  0  0  0  0  0  0  0  0  0  0
    5.4418    0.6382   20.1696 C   0  0  0  0  0  0  0  0  0  0  0  0
    4.8151    1.3078   19.1112 C   0  0  0  0  0  0  0  0  0  0  0  0
    5.4011    1.2960   17.8379 C   0  0  0  0  0  0  0  0  0  0  0  0
    6.5592    0.6722   17.5750 N   0  0  0  0  0  0  0  0  0  0  0  0
    7.1660    0.0504   18.5918 C   0  0  0  0  0  0  0  0  0  0  0  0
    9.9791    2.2536   23.6948 N   0  0  0  0  0  0  0  0  0  0  0  0
    9.8538    2.1776   25.0188 C   0  0  0  0  0  0  0  0  0  0  0  0
  1  2  1  0
  2  3  2  0
  3  4  1  0
  4  5  2  0
  5  6  1  0
  6  7  1  0
  7  8  1  0
  8  9  2  0
  9 10  1  0
 10 11  1  0
 11 12  1  0
 12 13  1  0
 13 14  1  0
 10 15  2  0
 15 16  1  0
 16 17  1  0
 17 18  2  0
 18 19  1  0
 19 20  2  0
 20 21  1  0
 21 22  2  0
  5 23  1  0
 23 24  2  0
 24  2  1  0
 16  8  1  0
 22 17  1  0
 14 11  1  0
M  END
>  <cnnaffinity>  (297) 
-6.19003

>  <filename>  (297) 
Fc1cnc(CCc2nc(C3CCC3)nn2-c2cccnc2)nc1

>  <enamine_id>  (297) 
PV-007114280675

$$$$

     RDKit          3D

 27 30  0  0  0  0  0  0  0  0999 V2000
   10.5761    2.9486   23.4536 C   0  0  0  0  0  0  0  0  0  0  0  0
   10.4538    1.6922   24.2816 C   0  0  0  0  0  0  0  0  0  0  0  0
   11.5359    1.2294   25.0418 C   0  0  0  0  0  0  0  0  0  0  0  0
   11.4257    0.2738   25.9772 N   0  0  0  0  0  0  0  0  0  0  0  0
   10.2529   -0.3231   26.1537 C   0  0  0  0  0  0  0  0  0  0  0  0
    9.1740   -0.1005   25.2887 C   0  0  0  0  0  0  0  0  0  0  0  0
    8.1030   -1.0340   25.3344 N   0  0  0  0  0  0  0  0  0  0  0  0
    7.5907   -1.4554   26.5171 N   0  0  0  0  0  0  0  0  0  0  0  0
    6.7030   -2.3667   26.1475 C   0  0  0  0  0  0  0  0  0  0  0  0
    5.8099   -3.0738   27.1277 C   0  0  1  0  0  0  0  0  0  0  0  0
    6.5158   -4.2871   27.8084 C   0  0  0  0  0  0  0  0  0  0  0  0
    5.8521   -4.7231   29.0947 C   0  0  0  0  0  0  0  0  0  0  0  0
    4.8283   -4.0747   29.6560 C   0  0  0  0  0  0  0  0  0  0  0  0
    4.2687   -2.7785   29.1234 C   0  0  0  0  0  0  0  0  0  0  0  0
    5.2370   -2.0798   28.1646 C   0  0  0  0  0  0  0  0  0  0  0  0
    6.6701   -2.6155   24.8111 N   0  0  0  0  0  0  0  0  0  0  0  0
    7.5741   -1.7835   24.3293 C   0  0  0  0  0  0  0  0  0  0  0  0
    7.9218   -1.6495   22.8935 C   0  0  0  0  0  0  0  0  0  0  0  0
    6.9173   -0.7847   22.1438 C   0  0  0  0  0  0  0  0  0  0  0  0
    7.4142   -0.6727   20.8194 O   0  0  0  0  0  0  0  0  0  0  0  0
    6.6795   -0.0083   19.8925 C   0  0  0  0  0  0  0  0  0  0  0  0
    5.4606    0.6377   20.1372 C   0  0  0  0  0  0  0  0  0  0  0  0
    4.8343    1.2983   19.0722 C   0  0  0  0  0  0  0  0  0  0  0  0
    5.4405    1.2894   17.8137 C   0  0  0  0  0  0  0  0  0  0  0  0
    6.6050    0.6602   17.5604 N   0  0  0  0  0  0  0  0  0  0  0  0
    7.2028    0.0315   18.5769 C   0  0  0  0  0  0  0  0  0  0  0  0
    9.2514    0.9655   24.3754 C   0  0  0  0  0  0  0  0  0  0  0  0
  1  2  1  0
  2  3  2  0
  3  4  1  0
  4  5  2  0
  5  6  1  0
  6  7  1  0
  7  8  1  0
  8  9  2  0
 10  9  1  6
 10 11  1  0
 11 12  1  0
 12 13  2  0
 13 14  1  0
 14 15  1  0
  9 16  1  0
 16 17  2  0
 17 18  1  0
 18 19  1  0
 19 20  1  0
 20 21  1  0
 21 22  2  0
 22 23  1  0
 23 24  2  0
 24 25  1  0
 25 26  2  0
  6 27  2  0
 27  2  1  0
 17  7  1  0
 26 21  1  0
 15 10  1  0
M  END
>  <cnnaffinity>  (298) 
-6.19001

>  <filename>  (298) 
Cc1cncc(-n2nc(C3CC=CCC3)nc2CCOc2cccnc2)c1

>  <enamine_id>  (298) 
PV-006817408699

$$$$

     RDKit          3D

 23 26  0  0  0  0  0  0  0  0999 V2000
    9.7396    2.1423   21.2719 C   0  0  0  0  0  0  0  0  0  0  0  0
    9.8273    2.1472   22.7138 N   0  0  0  0  0  0  0  0  0  0  0  0
   10.8859    2.5161   23.4990 C   0  0  0  0  0  0  0  0  0  0  0  0
   10.6381    2.3300   24.7714 N   0  0  0  0  0  0  0  0  0  0  0  0
    9.3648    1.8230   24.8171 C   0  0  0  0  0  0  0  0  0  0  0  0
    8.8308    1.7203   23.5565 C   0  0  0  0  0  0  0  0  0  0  0  0
    7.4981    1.1994   23.0703 C   0  0  0  0  0  0  0  0  0  0  0  0
    7.5875   -0.1378   22.3914 C   0  0  0  0  0  0  0  0  0  0  0  0
    8.0456   -1.1820   23.0529 N   0  0  0  0  0  0  0  0  0  0  0  0
    8.0657   -2.1690   22.1265 C   0  0  0  0  0  0  0  0  0  0  0  0
    8.5901   -3.5405   22.4464 C   0  0  0  0  0  0  0  0  0  0  0  0
    7.8326   -4.7064   21.7805 C   0  0  0  0  0  0  0  0  0  0  0  0
    8.2171   -5.9425   22.6082 C   0  0  0  0  0  0  0  0  0  0  0  0
    8.5174   -5.4397   24.0403 C   0  0  0  0  0  0  0  0  0  0  0  0
    8.5880   -3.8973   23.9539 C   0  0  0  0  0  0  0  0  0  0  0  0
    7.6452   -1.8063   20.9272 N   0  0  0  0  0  0  0  0  0  0  0  0
    7.2724   -0.5058   21.1114 N   0  0  0  0  0  0  0  0  0  0  0  0
    6.6226    0.1562   20.0279 C   0  0  0  0  0  0  0  0  0  0  0  0
    5.4119    0.8443   20.1823 C   0  0  0  0  0  0  0  0  0  0  0  0
    4.8293    1.4148   19.0429 C   0  0  0  0  0  0  0  0  0  0  0  0
    5.4737    1.3004   17.8087 C   0  0  0  0  0  0  0  0  0  0  0  0
    6.6216    0.6187   17.6512 N   0  0  0  0  0  0  0  0  0  0  0  0
    7.1610    0.0456   18.7313 C   0  0  0  0  0  0  0  0  0  0  0  0
  1  2  1  0
  2  3  1  0
  3  4  2  0
  4  5  1  0
  5  6  2  0
  6  7  1  0
  7  8  1  0
  8  9  2  0
  9 10  1  0
 10 11  1  0
 11 12  1  0
 12 13  1  0
 13 14  1  0
 14 15  1  0
 10 16  2  0
 16 17  1  0
 17 18  1  0
 18 19  2  0
 19 20  1  0
 20 21  2  0
 21 22  1  0
 22 23  2  0
  6  2  1  0
 17  8  1  0
 23 18  1  0
 15 11  1  0
M  END
>  <cnnaffinity>  (299) 
-6.18982

>  <filename>  (299) 
Cn1cncc1Cc1nc(C2CCCC2)nn1-c1cccnc1

>  <enamine_id>  (299) 
PV-006758126326

$$$$

     RDKit          3D

 27 30  0  0  0  0  0  0  0  0999 V2000
    7.2131    6.0747   26.1185 F   0  0  0  0  0  0  0  0  0  0  0  0
    7.6392    5.0872   25.3242 C   0  0  0  0  0  0  0  0  0  0  0  0
    7.7004    5.2832   23.9543 C   0  0  0  0  0  0  0  0  0  0  0  0
    8.1422    4.2565   23.1086 C   0  0  0  0  0  0  0  0  0  0  0  0
    8.5318    3.0223   23.6437 C   0  0  0  0  0  0  0  0  0  0  0  0
    8.9824    1.9630   22.9232 O   0  0  0  0  0  0  0  0  0  0  0  0
    9.0414    2.0143   21.5003 C   0  0  0  0  0  0  0  0  0  0  0  0
    9.5108    0.6444   21.0063 C   0  0  0  0  0  0  0  0  0  0  0  0
    8.6277   -0.4611   21.4469 C   0  0  0  0  0  0  0  0  0  0  0  0
    8.8774   -1.3102   22.4230 N   0  0  0  0  0  0  0  0  0  0  0  0
    7.7016   -1.9646   22.5569 C   0  0  0  0  0  0  0  0  0  0  0  0
    7.4486   -2.9357   23.6570 C   0  0  1  0  0  0  0  0  0  0  0  0
    6.4174   -2.4626   24.7132 C   0  0  0  0  0  0  0  0  0  0  0  0
    5.8064   -3.7722   25.2208 C   0  0  0  0  0  0  0  0  0  0  0  0
    6.0970   -4.7666   24.2483 O   0  0  0  0  0  0  0  0  0  0  0  0
    6.8520   -4.2625   23.1656 C   0  0  0  0  0  0  0  0  0  0  0  0
    6.7638   -1.6194   21.6932 N   0  0  0  0  0  0  0  0  0  0  0  0
    7.3713   -0.6576   20.9514 N   0  0  0  0  0  0  0  0  0  0  0  0
    6.6603    0.0081   19.9072 C   0  0  0  0  0  0  0  0  0  0  0  0
    5.4396    0.6395   20.1700 C   0  0  0  0  0  0  0  0  0  0  0  0
    4.8144    1.3076   19.1110 C   0  0  0  0  0  0  0  0  0  0  0  0
    5.4009    1.2960   17.8386 C   0  0  0  0  0  0  0  0  0  0  0  0
    6.5592    0.6709   17.5771 N   0  0  0  0  0  0  0  0  0  0  0  0
    7.1671    0.0503   18.5951 C   0  0  0  0  0  0  0  0  0  0  0  0
    8.4701    2.8254   25.0358 C   0  0  0  0  0  0  0  0  0  0  0  0
    8.0129    3.8498   25.8637 C   0  0  0  0  0  0  0  0  0  0  0  0
    7.8392    3.5803   27.5555 Cl  0  0  0  0  0  0  0  0  0  0  0  0
  1  2  1  0
  2  3  2  0
  3  4  1  0
  4  5  2  0
  5  6  1  0
  6  7  1  0
  7  8  1  0
  8  9  1  0
  9 10  2  0
 10 11  1  0
 12 11  1  6
 12 13  1  0
 13 14  1  0
 14 15  1  0
 15 16  1  0
 11 17  2  0
 17 18  1  0
 18 19  1  0
 19 20  2  0
 20 21  1  0
 21 22  2  0
 22 23  1  0
 23 24  2  0
  5 25  1  0
 25 26  2  0
 26 27  1  0
 26  2  1  0
 18  9  1  0
 24 19  1  0
 16 12  1  0
M  END
>  <cnnaffinity>  (300) 
-6.18714

>  <filename>  (300) 
Fc1ccc(OCCc2nc(C3CCOC3)nn2-c2cccnc2)cc1Cl

>  <enamine_id>  (300) 
PV-007051973467

$$$$

     RDKit          3D

 26 29  0  0  0  0  0  0  0  0999 V2000
    7.3902    5.8383   26.4806 F   0  0  0  0  0  0  0  0  0  0  0  0
    7.7891    4.8864   25.6234 C   0  0  0  0  0  0  0  0  0  0  0  0
    8.1978    3.6425   26.0927 C   0  0  0  0  0  0  0  0  0  0  0  0
    8.6091    2.6565   25.1910 C   0  0  0  0  0  0  0  0  0  0  0  0
    8.6167    2.9088   23.8054 C   0  0  0  0  0  0  0  0  0  0  0  0
    9.0404    1.8878   23.0125 O   0  0  0  0  0  0  0  0  0  0  0  0
    9.0468    2.0031   21.5928 C   0  0  0  0  0  0  0  0  0  0  0  0
    9.4945    0.6536   21.0224 C   0  0  0  0  0  0  0  0  0  0  0  0
    8.6054   -0.4607   21.4462 C   0  0  0  0  0  0  0  0  0  0  0  0
    8.8330   -1.2928   22.4340 N   0  0  0  0  0  0  0  0  0  0  0  0
    7.6530   -1.9626   22.5555 C   0  0  0  0  0  0  0  0  0  0  0  0
    7.4248   -2.9333   23.6593 C   0  0  0  0  0  0  0  0  0  0  0  0
    8.6028   -3.9057   23.9693 C   0  0  0  0  0  0  0  0  0  0  0  0
    8.7368   -3.2919   25.3832 C   0  0  0  0  0  0  0  0  0  0  0  0
    7.5500   -2.3414   25.1024 C   0  0  0  0  0  0  0  0  0  0  0  0
    6.7309   -1.6225   21.6799 N   0  0  0  0  0  0  0  0  0  0  0  0
    7.3523   -0.6639   20.9391 N   0  0  0  0  0  0  0  0  0  0  0  0
    6.6582    0.0135   19.8996 C   0  0  0  0  0  0  0  0  0  0  0  0
    5.4388    0.6471   20.1642 C   0  0  0  0  0  0  0  0  0  0  0  0
    4.8118    1.3121   19.1077 C   0  0  0  0  0  0  0  0  0  0  0  0
    5.4006    1.2967   17.8366 C   0  0  0  0  0  0  0  0  0  0  0  0
    6.5589    0.6724   17.5746 N   0  0  0  0  0  0  0  0  0  0  0  0
    7.1689    0.0525   18.5904 C   0  0  0  0  0  0  0  0  0  0  0  0
    8.2072    4.1636   23.3332 C   0  0  0  0  0  0  0  0  0  0  0  0
    7.7987    5.1332   24.2499 C   0  0  0  0  0  0  0  0  0  0  0  0
    7.4075    6.3308   23.8005 F   0  0  0  0  0  0  0  0  0  0  0  0
  1  2  1  0
  2  3  2  0
  3  4  1  0
  4  5  2  0
  5  6  1  0
  6  7  1  0
  7  8  1  0
  8  9  1  0
  9 10  2  0
 10 11  1  0
 11 12  1  0
 12 13  1  0
 13 14  1  0
 14 15  1  0
 11 16  2  0
 16 17  1  0
 17 18  1  0
 18 19  2  0
 19 20  1  0
 20 21  2  0
 21 22  1  0
 22 23  2  0
  5 24  1  0
 24 25  2  0
 25 26  1  0
 25  2  1  0
 17  9  1  0
 23 18  1  0
 15 12  1  0
M  END
>  <cnnaffinity>  (301) 
-6.18646

>  <filename>  (301) 
Fc1ccc(OCCc2nc(C3CCC3)nn2-c2cccnc2)cc1F

>  <enamine_id>  (301) 
PV-006843685223

$$$$

     RDKit          3D

 25 28  0  0  0  0  0  0  0  0999 V2000
    9.4863    0.9998   25.8951 Cl  0  0  0  0  0  0  0  0  0  0  0  0
    8.9165    2.5441   25.3257 C   0  0  0  0  0  0  0  0  0  0  0  0
    8.5632    3.5040   26.2744 C   0  0  0  0  0  0  0  0  0  0  0  0
    8.1075    4.7617   25.8755 C   0  0  0  0  0  0  0  0  0  0  0  0
    7.9975    5.0456   24.5161 C   0  0  0  0  0  0  0  0  0  0  0  0
    8.3424    4.0872   23.5548 C   0  0  0  0  0  0  0  0  0  0  0  0
    8.8093    2.8186   23.9391 C   0  0  0  0  0  0  0  0  0  0  0  0
    9.1683    1.8331   23.0822 O   0  0  0  0  0  0  0  0  0  0  0  0
    9.0758    1.9925   21.6694 C   0  0  0  0  0  0  0  0  0  0  0  0
    9.4873    0.6591   21.0375 C   0  0  0  0  0  0  0  0  0  0  0  0
    8.6018   -0.4612   21.4572 C   0  0  0  0  0  0  0  0  0  0  0  0
    8.8355   -1.2923   22.4473 N   0  0  0  0  0  0  0  0  0  0  0  0
    7.6644   -1.9700   22.5680 C   0  0  0  0  0  0  0  0  0  0  0  0
    7.4278   -2.9242   23.6873 C   0  0  0  0  0  0  0  0  0  0  0  0
    7.2692   -2.2294   25.0769 C   0  0  0  0  0  0  0  0  0  0  0  0
    8.7083   -3.1234   25.7548 S   0  0  0  0  0  0  0  0  0  0  0  0
    8.6419   -3.8133   24.0651 C   0  0  0  0  0  0  0  0  0  0  0  0
    6.7387   -1.6433   21.6923 N   0  0  0  0  0  0  0  0  0  0  0  0
    7.3512   -0.6787   20.9456 N   0  0  0  0  0  0  0  0  0  0  0  0
    6.6558    0.0031   19.9034 C   0  0  0  0  0  0  0  0  0  0  0  0
    5.4388    0.6432   20.1657 C   0  0  0  0  0  0  0  0  0  0  0  0
    4.8128    1.3107   19.1088 C   0  0  0  0  0  0  0  0  0  0  0  0
    5.4007    1.2960   17.8375 C   0  0  0  0  0  0  0  0  0  0  0  0
    6.5583    0.6704   17.5772 N   0  0  0  0  0  0  0  0  0  0  0  0
    7.1670    0.0485   18.5928 C   0  0  0  0  0  0  0  0  0  0  0  0
  1  2  1  0
  2  3  2  0
  3  4  1  0
  4  5  2  0
  5  6  1  0
  6  7  2  0
  7  8  1  0
  8  9  1  0
  9 10  1  0
 10 11  1  0
 11 12  2  0
 12 13  1  0
 13 14  1  0
 14 15  1  0
 15 16  1  0
 16 17  1  0
 13 18  2  0
 18 19  1  0
 19 20  1  0
 20 21  2  0
 21 22  1  0
 22 23  2  0
 23 24  1  0
 24 25  2  0
  7  2  1  0
 19 11  1  0
 25 20  1  0
 17 14  1  0
M  END
>  <cnnaffinity>  (302) 
-6.18472

>  <filename>  (302) 
Clc1ccccc1OCCc1nc(C2CSC2)nn1-c1cccnc1

>  <enamine_id>  (302) 
PV-006982652732

$$$$

     RDKit          3D

 23 25  0  0  0  0  0  0  0  0999 V2000
   10.1342    1.7828   22.0236 C   0  0  0  0  0  0  0  0  0  0  0  0
    8.6683    2.1400   21.7815 C   0  0  0  0  0  0  0  0  0  0  0  0
    7.7042    1.2301   22.5636 C   0  0  0  0  0  0  0  0  0  0  0  0
    7.7905   -0.1890   22.1437 C   0  0  0  0  0  0  0  0  0  0  0  0
    8.4247   -1.1362   22.8032 N   0  0  0  0  0  0  0  0  0  0  0  0
    8.3536   -2.1853   21.9566 C   0  0  0  0  0  0  0  0  0  0  0  0
    8.8767   -3.5324   22.2856 C   0  0  0  0  0  0  0  0  0  0  0  0
    7.9137   -4.3533   23.1077 C   0  0  0  0  0  0  0  0  0  0  0  0
    6.8975   -5.1244   22.5218 C   0  0  0  0  0  0  0  0  0  0  0  0
    6.7580   -5.2281   20.7907 Cl  0  0  0  0  0  0  0  0  0  0  0  0
    5.9570   -5.8141   23.2869 C   0  0  0  0  0  0  0  0  0  0  0  0
    6.0267   -5.7339   24.6781 C   0  0  0  0  0  0  0  0  0  0  0  0
    7.0186   -4.9769   25.3037 C   0  0  0  0  0  0  0  0  0  0  0  0
    7.9376   -4.3095   24.5070 C   0  0  0  0  0  0  0  0  0  0  0  0
    8.8871   -3.5679   25.1019 F   0  0  0  0  0  0  0  0  0  0  0  0
    7.7577   -1.9445   20.8075 N   0  0  0  0  0  0  0  0  0  0  0  0
    7.3608   -0.6585   20.9376 N   0  0  0  0  0  0  0  0  0  0  0  0
    6.6513    0.0094   19.9048 C   0  0  0  0  0  0  0  0  0  0  0  0
    5.4390    0.6570   20.1649 C   0  0  0  0  0  0  0  0  0  0  0  0
    4.8073    1.3089   19.1041 C   0  0  0  0  0  0  0  0  0  0  0  0
    5.4035    1.2930   17.8387 C   0  0  0  0  0  0  0  0  0  0  0  0
    6.5700    0.6721   17.5883 N   0  0  0  0  0  0  0  0  0  0  0  0
    7.1732    0.0409   18.5997 C   0  0  0  0  0  0  0  0  0  0  0  0
  1  2  1  0
  2  3  1  0
  3  4  1  0
  4  5  2  0
  5  6  1  0
  6  7  1  0
  7  8  1  0
  8  9  2  0
  9 10  1  0
  9 11  1  0
 11 12  2  0
 12 13  1  0
 13 14  2  0
 14 15  1  0
  6 16  2  0
 16 17  1  0
 17 18  1  0
 18 19  2  0
 19 20  1  0
 20 21  2  0
 21 22  1  0
 22 23  2  0
 17  4  1  0
 23 18  1  0
 14  8  1  0
M  END
>  <cnnaffinity>  (303) 
-6.18466

>  <filename>  (303) 
CCCc1nc(Cc2c(F)cccc2Cl)nn1-c1cccnc1

>  <enamine_id>  (303) 
PV-006921018252

$$$$

     RDKit          3D

 23 25  0  0  0  0  0  0  0  0999 V2000
    8.0474    1.1500   25.7249 F   0  0  0  0  0  0  0  0  0  0  0  0
    8.9465    1.6180   24.8482 C   0  0  0  0  0  0  0  0  0  0  0  0
   10.2178    1.9657   25.3128 C   0  0  0  0  0  0  0  0  0  0  0  0
   11.1578    2.4946   24.5191 N   0  0  0  0  0  0  0  0  0  0  0  0
   10.8476    2.6703   23.2303 C   0  0  0  0  0  0  0  0  0  0  0  0
    9.6010    2.3069   22.7028 C   0  0  0  0  0  0  0  0  0  0  0  0
    9.3042    2.5369   21.0239 Cl  0  0  0  0  0  0  0  0  0  0  0  0
    8.5967    1.7470   23.5033 C   0  0  0  0  0  0  0  0  0  0  0  0
    7.3011    1.1994   22.9123 C   0  0  0  0  0  0  0  0  0  0  0  0
    7.5171   -0.1527   22.2895 C   0  0  0  0  0  0  0  0  0  0  0  0
    8.0929   -1.1079   22.9880 N   0  0  0  0  0  0  0  0  0  0  0  0
    8.2590   -2.1090   22.0946 C   0  0  0  0  0  0  0  0  0  0  0  0
    8.9847   -3.4022   22.4054 C   0  0  0  0  0  0  0  0  0  0  0  0
    8.4458   -4.0979   23.4438 F   0  0  0  0  0  0  0  0  0  0  0  0
   10.2873   -3.1557   22.7208 F   0  0  0  0  0  0  0  0  0  0  0  0
    7.8120   -1.8450   20.8771 N   0  0  0  0  0  0  0  0  0  0  0  0
    7.2915   -0.5983   21.0007 N   0  0  0  0  0  0  0  0  0  0  0  0
    6.6199    0.0276   19.9064 C   0  0  0  0  0  0  0  0  0  0  0  0
    5.4016    0.6833   20.1149 C   0  0  0  0  0  0  0  0  0  0  0  0
    4.8022    1.3276   19.0282 C   0  0  0  0  0  0  0  0  0  0  0  0
    5.4307    1.2958   17.7824 C   0  0  0  0  0  0  0  0  0  0  0  0
    6.5768    0.6277   17.5634 N   0  0  0  0  0  0  0  0  0  0  0  0
    7.1473   -0.0020   18.5984 C   0  0  0  0  0  0  0  0  0  0  0  0
  1  2  1  0
  2  3  2  0
  3  4  1  0
  4  5  2  0
  5  6  1  0
  6  7  1  0
  6  8  2  0
  8  9  1  0
  9 10  1  0
 10 11  2  0
 11 12  1  0
 12 13  1  0
 13 14  1  0
 13 15  1  0
 12 16  2  0
 16 17  1  0
 17 18  1  0
 18 19  2  0
 19 20  1  0
 20 21  2  0
 21 22  1  0
 22 23  2  0
  8  2  1  0
 17 10  1  0
 23 18  1  0
M  END
>  <cnnaffinity>  (304) 
-6.18429

>  <filename>  (304) 
Fc1cncc(Cl)c1Cc1nc(C(F)F)nn1-c1cccnc1

>  <enamine_id>  (304) 
PV-007023516752

$$$$

     RDKit          3D

 26 29  0  0  0  0  0  0  0  0999 V2000
    4.5910    5.5794   21.8489 F   0  0  0  0  0  0  0  0  0  0  0  0
    5.7978    5.1473   22.2431 C   0  0  0  0  0  0  0  0  0  0  0  0
    6.4648    5.8811   23.2216 C   0  0  0  0  0  0  0  0  0  0  0  0
    7.7132    5.4179   23.6228 C   0  0  0  0  0  0  0  0  0  0  0  0
    8.2793    4.2598   23.0677 C   0  0  0  0  0  0  0  0  0  0  0  0
    7.5793    3.5389   22.0841 C   0  0  0  0  0  0  0  0  0  0  0  0
    8.0294    2.3966   21.4843 O   0  0  0  0  0  0  0  0  0  0  0  0
    9.3165    1.8695   21.7961 C   0  0  0  0  0  0  0  0  0  0  0  0
    9.5189    0.5856   20.9902 C   0  0  0  0  0  0  0  0  0  0  0  0
    8.6015   -0.5032   21.4119 C   0  0  0  0  0  0  0  0  0  0  0  0
    8.8382   -1.3608   22.3834 N   0  0  0  0  0  0  0  0  0  0  0  0
    7.6625   -2.0304   22.4961 C   0  0  0  0  0  0  0  0  0  0  0  0
    7.4528   -3.1156   23.5081 C   0  0  1  0  0  0  0  0  0  0  0  0
    8.2338   -2.9504   24.8319 C   0  0  0  0  0  0  0  0  0  0  0  0
    7.3650   -3.7006   25.8502 C   0  0  0  0  0  0  0  0  0  0  0  0
    6.0687   -3.8121   25.2819 O   0  0  0  0  0  0  0  0  0  0  0  0
    5.9996   -3.2260   23.9970 C   0  0  0  0  0  0  0  0  0  0  0  0
    6.7242   -1.6471   21.6479 N   0  0  0  0  0  0  0  0  0  0  0  0
    7.3430   -0.6754   20.9284 N   0  0  0  0  0  0  0  0  0  0  0  0
    6.6545    0.0105   19.8977 C   0  0  0  0  0  0  0  0  0  0  0  0
    5.4355    0.6405   20.1645 C   0  0  0  0  0  0  0  0  0  0  0  0
    4.8087    1.3063   19.1085 C   0  0  0  0  0  0  0  0  0  0  0  0
    5.3985    1.2948   17.8384 C   0  0  0  0  0  0  0  0  0  0  0  0
    6.5563    0.6704   17.5736 N   0  0  0  0  0  0  0  0  0  0  0  0
    7.1668    0.0543   18.5908 C   0  0  0  0  0  0  0  0  0  0  0  0
    6.3158    3.9923   21.6663 C   0  0  0  0  0  0  0  0  0  0  0  0
  1  2  1  0
  2  3  2  0
  3  4  1  0
  4  5  2  0
  5  6  1  0
  6  7  1  0
  7  8  1  0
  8  9  1  0
  9 10  1  0
 10 11  2  0
 11 12  1  0
 13 12  1  6
 13 14  1  0
 14 15  1  0
 15 16  1  0
 16 17  1  0
 12 18  2  0
 18 19  1  0
 19 20  1  0
 20 21  2  0
 21 22  1  0
 22 23  2  0
 23 24  1  0
 24 25  2  0
  6 26  2  0
 26  2  1  0
 19 10  1  0
 25 20  1  0
 17 13  1  0
M  END
>  <cnnaffinity>  (305) 
-6.1838

>  <filename>  (305) 
Fc1cccc(OCCc2nc(C3CCOC3)nn2-c2cccnc2)c1

>  <enamine_id>  (305) 
PV-006769370584

$$$$

     RDKit          3D

 22 24  0  0  0  0  0  0  0  0999 V2000
    7.6411   -3.9784   24.4712 C   0  0  0  0  0  0  0  0  0  0  0  0
    8.0547   -4.4125   23.0655 C   0  0  0  0  0  0  0  0  0  0  0  0
    8.9443   -3.3693   22.3415 C   0  0  2  0  0  0  0  0  0  0  0  0
   10.2715   -3.0954   23.0877 C   0  0  0  0  0  0  0  0  0  0  0  0
    8.2291   -2.0785   22.0544 C   0  0  0  0  0  0  0  0  0  0  0  0
    7.7758   -1.8103   20.8496 N   0  0  0  0  0  0  0  0  0  0  0  0
    7.3011   -0.5467   20.9740 N   0  0  0  0  0  0  0  0  0  0  0  0
    6.6120    0.0634   19.9042 C   0  0  0  0  0  0  0  0  0  0  0  0
    5.3938    0.7077   20.1283 C   0  0  0  0  0  0  0  0  0  0  0  0
    4.7879    1.3395   19.0422 C   0  0  0  0  0  0  0  0  0  0  0  0
    5.4145    1.3002   17.7937 C   0  0  0  0  0  0  0  0  0  0  0  0
    6.5614    0.6342   17.5668 N   0  0  0  0  0  0  0  0  0  0  0  0
    7.1370    0.0118   18.6010 C   0  0  0  0  0  0  0  0  0  0  0  0
    7.5545   -0.0932   22.2388 C   0  0  0  0  0  0  0  0  0  0  0  0
    7.6021    1.3517   22.6289 C   0  0  0  0  0  0  0  0  0  0  0  0
    8.7598    2.1160   21.9321 C   0  0  0  0  0  0  0  0  0  0  0  0
   10.1362    1.6070   22.2755 C   0  0  0  0  0  0  0  0  0  0  0  0
   10.9669    1.9787   23.2897 C   0  0  0  0  0  0  0  0  0  0  0  0
   12.1892    1.3518   23.3524 N   0  0  0  0  0  0  0  0  0  0  0  0
   12.2972    0.4953   22.3807 C   0  0  0  0  0  0  0  0  0  0  0  0
   10.9293    0.3988   21.3432 S   0  0  0  0  0  0  0  0  0  0  0  0
    8.0600   -1.0767   22.9610 N   0  0  0  0  0  0  0  0  0  0  0  0
  1  2  1  0
  2  3  1  0
  3  4  1  1
  3  5  1  0
  5  6  2  0
  6  7  1  0
  7  8  1  0
  8  9  2  0
  9 10  1  0
 10 11  2  0
 11 12  1  0
 12 13  2  0
  7 14  1  0
 14 15  1  0
 15 16  1  0
 16 17  1  0
 17 18  2  0
 18 19  1  0
 19 20  2  0
 20 21  1  0
 14 22  2  0
 22  5  1  0
 13  8  1  0
 21 17  1  0
M  END
>  <cnnaffinity>  (306) 
-6.18359

>  <filename>  (306) 
CCC(C)c1nc(CCc2cncs2)n(-c2cccnc2)n1

>  <enamine_id>  (306) 
PV-007012829513

$$$$

     RDKit          3D

 26 29  0  0  0  0  0  0  0  0999 V2000
    9.0476    1.5615   20.7073 O   0  0  0  0  0  0  0  0  0  0  0  0
    8.7190    1.1372   22.0223 C   0  0  1  0  0  0  0  0  0  0  0  0
    7.7886    2.1902   22.6993 C   0  0  0  0  0  0  0  0  0  0  0  0
    8.4476    3.5522   22.8940 C   0  0  0  0  0  0  0  0  0  0  0  0
    8.0376    4.6819   22.1615 C   0  0  0  0  0  0  0  0  0  0  0  0
    8.6851    5.9176   22.2664 C   0  0  0  0  0  0  0  0  0  0  0  0
    9.7980    6.0478   23.0981 C   0  0  0  0  0  0  0  0  0  0  0  0
   10.1924    4.9698   23.8976 C   0  0  0  0  0  0  0  0  0  0  0  0
    9.4982    3.7559   23.8133 C   0  0  0  0  0  0  0  0  0  0  0  0
    9.9505    2.4804   24.9234 Cl  0  0  0  0  0  0  0  0  0  0  0  0
    8.1941   -0.2965   22.0290 C   0  0  0  0  0  0  0  0  0  0  0  0
    8.4486   -1.2925   22.8706 N   0  0  0  0  0  0  0  0  0  0  0  0
    7.7401   -2.3280   22.3558 C   0  0  0  0  0  0  0  0  0  0  0  0
    7.6393   -3.6696   23.0319 C   0  0  1  0  0  0  0  0  0  0  0  0
    6.2745   -3.9524   23.7169 C   0  0  0  0  0  0  0  0  0  0  0  0
    6.2356   -5.4736   23.7480 C   0  0  0  0  0  0  0  0  0  0  0  0
    6.8660   -5.8778   22.5479 O   0  0  0  0  0  0  0  0  0  0  0  0
    7.7902   -4.8995   22.1029 C   0  0  0  0  0  0  0  0  0  0  0  0
    7.0746   -2.0423   21.2495 N   0  0  0  0  0  0  0  0  0  0  0  0
    7.3617   -0.7355   21.0455 N   0  0  0  0  0  0  0  0  0  0  0  0
    6.7122   -0.0217   19.9909 C   0  0  0  0  0  0  0  0  0  0  0  0
    5.4828    0.6110   20.2104 C   0  0  0  0  0  0  0  0  0  0  0  0
    4.8831    1.2687   19.1307 C   0  0  0  0  0  0  0  0  0  0  0  0
    5.5350    1.2626   17.8923 C   0  0  0  0  0  0  0  0  0  0  0  0
    6.7151    0.6556   17.6807 N   0  0  0  0  0  0  0  0  0  0  0  0
    7.2846    0.0169   18.7123 C   0  0  0  0  0  0  0  0  0  0  0  0
  2  1  1  6
  2  3  1  0
  3  4  1  0
  4  5  2  0
  5  6  1  0
  6  7  2  0
  7  8  1  0
  8  9  2  0
  9 10  1  0
  2 11  1  0
 11 12  2  0
 12 13  1  0
 14 13  1  6
 14 15  1  0
 15 16  1  0
 16 17  1  0
 17 18  1  0
 13 19  2  0
 19 20  1  0
 20 21  1  0
 21 22  2  0
 22 23  1  0
 23 24  2  0
 24 25  1  0
 25 26  2  0
  9  4  1  0
 20 11  1  0
 26 21  1  0
 18 14  1  0
M  END
>  <cnnaffinity>  (307) 
-6.18344

>  <filename>  (307) 
OC(Cc1ccccc1Cl)c1nc(C2CCOC2)nn1-c1cccnc1

>  <enamine_id>  (307) 
PV-006972151752

$$$$

     RDKit          3D

 23 26  0  0  0  0  0  0  0  0999 V2000
    3.9849    5.4244   23.9686 C   0  0  0  0  0  0  0  0  0  0  0  0
    4.9981    4.4303   24.4263 C   0  0  0  0  0  0  0  0  0  0  0  0
    5.0567    3.2451   23.9173 N   0  0  0  0  0  0  0  0  0  0  0  0
    6.0635    2.5033   24.4892 C   0  0  0  0  0  0  0  0  0  0  0  0
    6.3460    1.1714   23.8872 C   0  0  0  0  0  0  0  0  0  0  0  0
    7.3582    1.2520   22.7207 C   0  0  0  0  0  0  0  0  0  0  0  0
    7.5888   -0.1022   22.1586 C   0  0  0  0  0  0  0  0  0  0  0  0
    8.1488   -1.0386   22.8962 N   0  0  0  0  0  0  0  0  0  0  0  0
    8.2724   -2.0713   22.0339 C   0  0  0  0  0  0  0  0  0  0  0  0
    9.0139   -3.3027   22.4014 C   0  0  0  0  0  0  0  0  0  0  0  0
    8.5974   -4.1409   23.6514 C   0  0  0  0  0  0  0  0  0  0  0  0
   10.0181   -3.9738   24.2437 C   0  0  0  0  0  0  0  0  0  0  0  0
   10.4077   -3.0495   23.0708 C   0  0  0  0  0  0  0  0  0  0  0  0
    7.8110   -1.8484   20.8202 N   0  0  0  0  0  0  0  0  0  0  0  0
    7.3247   -0.5815   20.9103 N   0  0  0  0  0  0  0  0  0  0  0  0
    6.6133    0.0222   19.8410 C   0  0  0  0  0  0  0  0  0  0  0  0
    5.4060    0.6891   20.0797 C   0  0  0  0  0  0  0  0  0  0  0  0
    4.7909    1.3409   19.0067 C   0  0  0  0  0  0  0  0  0  0  0  0
    5.4041    1.3067   17.7523 C   0  0  0  0  0  0  0  0  0  0  0  0
    6.5373    0.6221   17.5088 N   0  0  0  0  0  0  0  0  0  0  0  0
    7.1156   -0.0222   18.5288 C   0  0  0  0  0  0  0  0  0  0  0  0
    6.7768    3.1353   25.4552 C   0  0  0  0  0  0  0  0  0  0  0  0
    6.1773    4.7380   25.6689 S   0  0  0  0  0  0  0  0  0  0  0  0
  1  2  1  0
  2  3  2  0
  3  4  1  0
  4  5  1  0
  5  6  1  0
  6  7  1  0
  7  8  2  0
  8  9  1  0
  9 10  1  0
 10 11  1  0
 11 12  1  0
 12 13  1  0
  9 14  2  0
 14 15  1  0
 15 16  1  0
 16 17  2  0
 17 18  1  0
 18 19  2  0
 19 20  1  0
 20 21  2  0
  4 22  2  0
 22 23  1  0
 23  2  1  0
 15  7  1  0
 21 16  1  0
 13 10  1  0
M  END
>  <cnnaffinity>  (308) 
-6.18026

>  <filename>  (308) 
Cc1nc(CCc2nc(C3CCC3)nn2-c2cccnc2)cs1

>  <enamine_id>  (308) 
PV-006801638561

$$$$

     RDKit          3D

 22 25  0  0  0  0  0  0  0  0999 V2000
    5.0643    1.2166   19.2236 C   0  0  0  0  0  0  0  0  0  0  0  0
    5.6428    1.1829   17.9513 C   0  0  0  0  0  0  0  0  0  0  0  0
    6.7881    0.5382   17.6820 N   0  0  0  0  0  0  0  0  0  0  0  0
    7.4038   -0.0795   18.7014 C   0  0  0  0  0  0  0  0  0  0  0  0
    6.9056   -0.1042   20.0194 C   0  0  0  0  0  0  0  0  0  0  0  0
    7.5539   -0.8242   21.0815 N   0  0  0  0  0  0  0  0  0  0  0  0
    6.8722   -1.8218   21.7123 N   0  0  0  0  0  0  0  0  0  0  0  0
    7.7156   -2.2235   22.6453 C   0  0  0  0  0  0  0  0  0  0  0  0
    7.3662   -3.2377   23.6921 C   0  0  0  0  0  0  0  0  0  0  0  0
    6.3047   -2.7612   24.7132 C   0  0  0  0  0  0  0  0  0  0  0  0
    5.8134   -4.0454   25.4053 C   0  0  0  0  0  0  0  0  0  0  0  0
    6.1890   -5.2083   24.4564 C   0  0  0  0  0  0  0  0  0  0  0  0
    6.7623   -4.5569   23.1873 C   0  0  0  0  0  0  0  0  0  0  0  0
    8.8980   -1.5530   22.6672 N   0  0  0  0  0  0  0  0  0  0  0  0
    8.7611   -0.6701   21.7046 C   0  0  0  0  0  0  0  0  0  0  0  0
    9.7515    0.4150   21.4012 C   0  0  0  0  0  0  0  0  0  0  0  0
    9.2819    1.7247   21.9583 C   0  0  0  0  0  0  0  0  0  0  0  0
    8.3841    2.6059   21.4303 C   0  0  0  0  0  0  0  0  0  0  0  0
    8.0504    3.5505   22.4444 C   0  0  0  0  0  0  0  0  0  0  0  0
    8.7712    3.2041   23.5532 C   0  0  0  0  0  0  0  0  0  0  0  0
    9.5349    2.1039   23.2465 N   0  0  0  0  0  0  0  0  0  0  0  0
    5.6947    0.5528   20.2774 C   0  0  0  0  0  0  0  0  0  0  0  0
  1  2  2  0
  2  3  1  0
  3  4  2  0
  4  5  1  0
  5  6  1  0
  6  7  1  0
  7  8  2  0
  8  9  1  0
  9 10  1  0
 10 11  1  0
 11 12  1  0
 12 13  1  0
  8 14  1  0
 14 15  2  0
 15 16  1  0
 16 17  1  0
 17 18  2  0
 18 19  1  0
 19 20  2  0
 20 21  1  0
  5 22  2  0
 22  1  1  0
 15  6  1  0
 21 17  1  0
 13  9  1  0
M  END
>  <cnnaffinity>  (309) 
-6.1796

>  <filename>  (309) 
c1cncc(-n2nc(C3CCCC3)nc2Cc2ccc[nH]2)c1

>  <enamine_id>  (309) 
PV-006809818510

$$$$

     RDKit          3D

 24 27  0  0  0  0  0  0  0  0999 V2000
   12.6913    1.4128   24.5583 C   0  0  0  0  0  0  0  0  0  0  0  0
   11.6506    0.5538   24.9390 C   0  0  0  0  0  0  0  0  0  0  0  0
   10.3775    0.8426   24.4384 C   0  0  0  0  0  0  0  0  0  0  0  0
   10.1808    1.9627   23.6183 C   0  0  0  0  0  0  0  0  0  0  0  0
    8.8713    2.1928   22.8973 C   0  0  0  0  0  0  0  0  0  0  0  0
    9.0063    2.0213   21.3657 C   0  0  0  0  0  0  0  0  0  0  0  0
    9.5043    0.6237   20.9506 C   0  0  0  0  0  0  0  0  0  0  0  0
    8.6263   -0.4786   21.4265 C   0  0  0  0  0  0  0  0  0  0  0  0
    8.8718   -1.3189   22.4141 N   0  0  0  0  0  0  0  0  0  0  0  0
    7.6870   -1.9644   22.5702 C   0  0  0  0  0  0  0  0  0  0  0  0
    7.4378   -2.9203   23.6847 C   0  0  0  0  0  0  0  0  0  0  0  0
    7.3441   -2.2308   25.0801 C   0  0  0  0  0  0  0  0  0  0  0  0
    8.7964   -3.1423   25.6993 S   0  0  0  0  0  0  0  0  0  0  0  0
    8.6320   -3.8468   24.0235 C   0  0  0  0  0  0  0  0  0  0  0  0
    6.7445   -1.6095   21.7270 N   0  0  0  0  0  0  0  0  0  0  0  0
    7.3573   -0.6662   20.9591 N   0  0  0  0  0  0  0  0  0  0  0  0
    6.6583   -0.0126   19.9023 C   0  0  0  0  0  0  0  0  0  0  0  0
    5.4385    0.6255   20.1583 C   0  0  0  0  0  0  0  0  0  0  0  0
    4.8145    1.3026   19.1069 C   0  0  0  0  0  0  0  0  0  0  0  0
    5.4132    1.2934   17.8425 C   0  0  0  0  0  0  0  0  0  0  0  0
    6.5629    0.6529   17.5792 N   0  0  0  0  0  0  0  0  0  0  0  0
    7.1671    0.0188   18.5911 C   0  0  0  0  0  0  0  0  0  0  0  0
   11.1578    2.8520   23.3759 N   0  0  0  0  0  0  0  0  0  0  0  0
   12.3832    2.5665   23.8285 C   0  0  0  0  0  0  0  0  0  0  0  0
  1  2  2  0
  2  3  1  0
  3  4  2  0
  4  5  1  0
  5  6  1  0
  6  7  1  0
  7  8  1  0
  8  9  2  0
  9 10  1  0
 10 11  1  0
 11 12  1  0
 12 13  1  0
 13 14  1  0
 10 15  2  0
 15 16  1  0
 16 17  1  0
 17 18  2  0
 18 19  1  0
 19 20  2  0
 20 21  1  0
 21 22  2  0
  4 23  1  0
 23 24  2  0
 24  1  1  0
 16  8  1  0
 22 17  1  0
 14 11  1  0
M  END
>  <cnnaffinity>  (310) 
-6.17578

>  <filename>  (310) 
c1ccc(CCCc2nc(C3CSC3)nn2-c2cccnc2)nc1

>  <enamine_id>  (310) 
PV-007101073507

$$$$

     RDKit          3D

 25 28  0  0  0  0  0  0  0  0999 V2000
    9.2519   -3.3415   26.8510 C   0  0  0  0  0  0  0  0  0  0  0  0
    7.9624   -4.0493   26.3923 C   0  0  2  0  0  0  0  0  0  0  0  0
    8.1909   -4.8468   25.0803 C   0  0  0  0  0  0  0  0  0  0  0  0
    8.4757   -3.9237   23.8824 C   0  0  0  0  0  0  0  0  0  0  0  0
    7.3705   -2.8602   23.7115 C   0  0  2  0  0  0  0  0  0  0  0  0
    7.6489   -1.9498   22.5528 C   0  0  0  0  0  0  0  0  0  0  0  0
    6.7063   -1.5539   21.7209 N   0  0  0  0  0  0  0  0  0  0  0  0
    7.3491   -0.6499   20.9360 N   0  0  0  0  0  0  0  0  0  0  0  0
    6.6594    0.0045   19.8819 C   0  0  0  0  0  0  0  0  0  0  0  0
    5.4377    0.6371   20.1407 C   0  0  0  0  0  0  0  0  0  0  0  0
    4.8104    1.3125   19.0922 C   0  0  0  0  0  0  0  0  0  0  0  0
    5.4081    1.3049   17.8268 C   0  0  0  0  0  0  0  0  0  0  0  0
    6.5580    0.6648   17.5600 N   0  0  0  0  0  0  0  0  0  0  0  0
    7.1655    0.0297   18.5698 C   0  0  0  0  0  0  0  0  0  0  0  0
    8.6326   -0.5112   21.3802 C   0  0  0  0  0  0  0  0  0  0  0  0
    9.5145    0.6215   20.9648 C   0  0  0  0  0  0  0  0  0  0  0  0
    9.0500    1.9934   21.5154 C   0  0  0  0  0  0  0  0  0  0  0  0
    8.8943    2.0257   22.9640 N   0  0  0  0  0  0  0  0  0  0  0  0
    7.7068    1.8457   23.6360 C   0  0  0  0  0  0  0  0  0  0  0  0
    7.9693    1.7614   24.9811 C   0  0  0  0  0  0  0  0  0  0  0  0
    9.3843    1.8714   25.1380 C   0  0  0  0  0  0  0  0  0  0  0  0
    9.9214    2.0282   23.8812 C   0  0  0  0  0  0  0  0  0  0  0  0
    8.8685   -1.3743   22.3477 N   0  0  0  0  0  0  0  0  0  0  0  0
    7.1667   -2.0603   25.0265 C   0  0  0  0  0  0  0  0  0  0  0  0
    6.8573   -2.9832   26.2127 C   0  0  0  0  0  0  0  0  0  0  0  0
  2  1  1  6
  2  3  1  0
  3  4  1  0
  4  5  1  0
  5  6  1  6
  6  7  2  0
  7  8  1  0
  8  9  1  0
  9 10  2  0
 10 11  1  0
 11 12  2  0
 12 13  1  0
 13 14  2  0
  8 15  1  0
 15 16  1  0
 16 17  1  0
 17 18  1  0
 18 19  1  0
 19 20  2  0
 20 21  1  0
 21 22  2  0
 15 23  2  0
  5 24  1  0
 24 25  1  0
 25  2  1  0
 23  6  1  0
 14  9  1  0
 22 18  1  0
M  END
>  <cnnaffinity>  (311) 
-6.17302

>  <filename>  (311) 
CC1CCC(c2nc(CCn3cccc3)n(-c3cccnc3)n2)CC1

>  <enamine_id>  (311) 
PV-006722291147

$$$$

     RDKit          3D

 26 29  0  0  0  0  0  0  0  0999 V2000
   11.1889    2.7609   23.3709 C   0  0  0  0  0  0  0  0  0  0  0  0
    9.7809    2.4058   23.8169 C   0  0  0  0  0  0  0  0  0  0  0  0
    9.4548    2.3085   25.1752 C   0  0  0  0  0  0  0  0  0  0  0  0
    8.1377    2.0463   25.5629 C   0  0  0  0  0  0  0  0  0  0  0  0
    7.1819    1.8151   24.5748 C   0  0  0  0  0  0  0  0  0  0  0  0
    7.4677    1.8691   23.2679 N   0  0  0  0  0  0  0  0  0  0  0  0
    8.7353    2.1304   22.8952 C   0  0  0  0  0  0  0  0  0  0  0  0
    9.0050    2.0197   21.4049 C   0  0  0  0  0  0  0  0  0  0  0  0
    9.5215    0.6178   20.9542 C   0  0  0  0  0  0  0  0  0  0  0  0
    8.6461   -0.5279   21.3638 C   0  0  0  0  0  0  0  0  0  0  0  0
    8.8967   -1.3863   22.3326 N   0  0  0  0  0  0  0  0  0  0  0  0
    7.6816   -1.9558   22.5673 C   0  0  0  0  0  0  0  0  0  0  0  0
    7.3908   -2.8733   23.7392 C   0  0  0  0  0  0  0  0  0  0  0  0
    7.0479   -2.0889   25.0502 C   0  0  0  0  0  0  0  0  0  0  0  0
    8.3145   -1.5664   25.7405 C   0  0  0  0  0  0  0  0  0  0  0  0
    9.2129   -2.6286   26.0136 O   0  0  0  0  0  0  0  0  0  0  0  0
    9.6918   -3.2434   24.8278 C   0  0  0  0  0  0  0  0  0  0  0  0
    8.5452   -3.8725   24.0177 C   0  0  0  0  0  0  0  0  0  0  0  0
    6.7271   -1.5633   21.7516 N   0  0  0  0  0  0  0  0  0  0  0  0
    7.3577   -0.6640   20.9460 N   0  0  0  0  0  0  0  0  0  0  0  0
    6.6629    0.0002   19.8989 C   0  0  0  0  0  0  0  0  0  0  0  0
    5.4486    0.6445   20.1581 C   0  0  0  0  0  0  0  0  0  0  0  0
    4.8102    1.3121   19.1088 C   0  0  0  0  0  0  0  0  0  0  0  0
    5.4025    1.2959   17.8393 C   0  0  0  0  0  0  0  0  0  0  0  0
    6.5566    0.6650   17.5783 N   0  0  0  0  0  0  0  0  0  0  0  0
    7.1712    0.0412   18.5881 C   0  0  0  0  0  0  0  0  0  0  0  0
  1  2  1  0
  2  3  2  0
  3  4  1  0
  4  5  2  0
  5  6  1  0
  6  7  2  0
  7  8  1  0
  8  9  1  0
  9 10  1  0
 10 11  2  0
 11 12  1  0
 12 13  1  0
 13 14  1  0
 14 15  1  0
 15 16  1  0
 16 17  1  0
 17 18  1  0
 12 19  2  0
 19 20  1  0
 20 21  1  0
 21 22  2  0
 22 23  1  0
 23 24  2  0
 24 25  1  0
 25 26  2  0
  7  2  1  0
 20 10  1  0
 26 21  1  0
 18 13  1  0
M  END
>  <cnnaffinity>  (312) 
-6.17138

>  <filename>  (312) 
Cc1cccnc1CCc1nc(C2CCOCC2)nn1-c1cccnc1

>  <enamine_id>  (312) 
PV-006894410112

$$$$

     RDKit          3D

 27 30  0  0  0  0  0  0  0  0999 V2000
    7.3716    5.8773   26.4077 F   0  0  0  0  0  0  0  0  0  0  0  0
    7.7724    4.9239   25.5530 C   0  0  0  0  0  0  0  0  0  0  0  0
    7.7807    5.1852   24.1902 C   0  0  0  0  0  0  0  0  0  0  0  0
    8.1998    4.1828   23.3059 C   0  0  0  0  0  0  0  0  0  0  0  0
    8.6082    2.9209   23.7707 C   0  0  0  0  0  0  0  0  0  0  0  0
    9.0288    1.9011   22.9831 O   0  0  0  0  0  0  0  0  0  0  0  0
    9.0451    2.0066   21.5618 C   0  0  0  0  0  0  0  0  0  0  0  0
    9.4994    0.6502   21.0160 C   0  0  0  0  0  0  0  0  0  0  0  0
    8.6094   -0.4571   21.4560 C   0  0  0  0  0  0  0  0  0  0  0  0
    8.8329   -1.2833   22.4550 N   0  0  0  0  0  0  0  0  0  0  0  0
    7.6584   -1.9548   22.5703 C   0  0  0  0  0  0  0  0  0  0  0  0
    7.4070   -2.9480   23.6611 C   0  0  1  0  0  0  0  0  0  0  0  0
    8.5786   -3.9370   23.8709 C   0  0  0  0  0  0  0  0  0  0  0  0
    9.4299   -3.2786   24.9738 C   0  0  0  0  0  0  0  0  0  0  0  0
    8.6281   -2.2738   25.5647 O   0  0  0  0  0  0  0  0  0  0  0  0
    7.3207   -2.2592   25.0411 C   0  0  0  0  0  0  0  0  0  0  0  0
    6.7373   -1.6186   21.6924 N   0  0  0  0  0  0  0  0  0  0  0  0
    7.3577   -0.6620   20.9457 N   0  0  0  0  0  0  0  0  0  0  0  0
    6.6592    0.0118   19.9024 C   0  0  0  0  0  0  0  0  0  0  0  0
    5.4394    0.6459   20.1657 C   0  0  0  0  0  0  0  0  0  0  0  0
    4.8129    1.3112   19.1082 C   0  0  0  0  0  0  0  0  0  0  0  0
    5.4007    1.2965   17.8368 C   0  0  0  0  0  0  0  0  0  0  0  0
    6.5589    0.6716   17.5747 N   0  0  0  0  0  0  0  0  0  0  0  0
    7.1678    0.0513   18.5918 C   0  0  0  0  0  0  0  0  0  0  0  0
    8.5833    2.7001   25.1733 C   0  0  0  0  0  0  0  0  0  0  0  0
    9.0622    1.1707   25.8430 Cl  0  0  0  0  0  0  0  0  0  0  0  0
    8.1706    3.6934   26.0630 C   0  0  0  0  0  0  0  0  0  0  0  0
  1  2  1  0
  2  3  2  0
  3  4  1  0
  4  5  2  0
  5  6  1  0
  6  7  1  0
  7  8  1  0
  8  9  1  0
  9 10  2  0
 10 11  1  0
 12 11  1  6
 12 13  1  0
 13 14  1  0
 14 15  1  0
 15 16  1  0
 11 17  2  0
 17 18  1  0
 18 19  1  0
 19 20  2  0
 20 21  1  0
 21 22  2  0
 22 23  1  0
 23 24  2  0
  5 25  1  0
 25 26  1  0
 25 27  2  0
 27  2  1  0
 18  9  1  0
 24 19  1  0
 16 12  1  0
M  END
>  <cnnaffinity>  (313) 
-6.16876

>  <filename>  (313) 
Fc1ccc(OCCc2nc(C3CCOC3)nn2-c2cccnc2)c(Cl)c1

>  <enamine_id>  (313) 
PV-007078730708

$$$$

     RDKit          3D

 26 29  0  0  0  0  0  0  0  0999 V2000
    6.5429    1.2607   23.9320 C   0  0  0  0  0  0  0  0  0  0  0  0
    7.4727    1.2380   22.7079 C   0  0  1  0  0  0  0  0  0  0  0  0
    8.8972    1.7647   23.0634 C   0  0  0  0  0  0  0  0  0  0  0  0
    8.8545    3.2323   23.3962 C   0  0  0  0  0  0  0  0  0  0  0  0
    8.6927    4.1646   22.3617 C   0  0  0  0  0  0  0  0  0  0  0  0
    8.6253    5.5355   22.6121 C   0  0  0  0  0  0  0  0  0  0  0  0
    8.6710    5.9971   23.9321 C   0  0  0  0  0  0  0  0  0  0  0  0
    8.7803    5.0890   24.9916 C   0  0  0  0  0  0  0  0  0  0  0  0
    8.8692    3.7274   24.7055 C   0  0  0  0  0  0  0  0  0  0  0  0
    8.9510    2.8568   25.7344 F   0  0  0  0  0  0  0  0  0  0  0  0
    7.5701   -0.1560   22.1823 C   0  0  0  0  0  0  0  0  0  0  0  0
    8.0889   -1.1098   22.9225 N   0  0  0  0  0  0  0  0  0  0  0  0
    8.2182   -2.1400   22.0593 C   0  0  0  0  0  0  0  0  0  0  0  0
    8.8360   -3.3970   22.5631 C   0  0  2  0  0  0  0  0  0  0  0  0
    8.0759   -4.0966   23.7118 C   0  0  0  0  0  0  0  0  0  0  0  0
    9.1890   -4.8902   24.3931 C   0  0  0  0  0  0  0  0  0  0  0  0
   10.3673   -4.1236   24.2242 O   0  0  0  0  0  0  0  0  0  0  0  0
   10.2024   -3.1299   23.2308 C   0  0  0  0  0  0  0  0  0  0  0  0
    7.7947   -1.9086   20.8344 N   0  0  0  0  0  0  0  0  0  0  0  0
    7.3279   -0.6263   20.9220 N   0  0  0  0  0  0  0  0  0  0  0  0
    6.6180    0.0013   19.8562 C   0  0  0  0  0  0  0  0  0  0  0  0
    5.4100    0.6725   20.0926 C   0  0  0  0  0  0  0  0  0  0  0  0
    4.7981    1.3323   19.0237 C   0  0  0  0  0  0  0  0  0  0  0  0
    5.4148    1.3051   17.7694 C   0  0  0  0  0  0  0  0  0  0  0  0
    6.5509    0.6283   17.5269 N   0  0  0  0  0  0  0  0  0  0  0  0
    7.1271   -0.0204   18.5441 C   0  0  0  0  0  0  0  0  0  0  0  0
  2  1  1  1
  2  3  1  0
  3  4  1  0
  4  5  2  0
  5  6  1  0
  6  7  2  0
  7  8  1  0
  8  9  2  0
  9 10  1  0
  2 11  1  0
 11 12  2  0
 12 13  1  0
 14 13  1  1
 14 15  1  0
 15 16  1  0
 16 17  1  0
 17 18  1  0
 13 19  2  0
 19 20  1  0
 20 21  1  0
 21 22  2  0
 22 23  1  0
 23 24  2  0
 24 25  1  0
 25 26  2  0
  9  4  1  0
 20 11  1  0
 26 21  1  0
 18 14  1  0
M  END
>  <cnnaffinity>  (314) 
-6.16826

>  <filename>  (314) 
CC(Cc1ccccc1F)c1nc(C2CCOC2)nn1-c1cccnc1

>  <enamine_id>  (314) 
PV-007049740219

$$$$

     RDKit          3D

 25 28  0  0  0  0  0  0  0  0999 V2000
   11.5237    1.7305   25.3902 F   0  0  0  0  0  0  0  0  0  0  0  0
   10.3011    1.8525   24.8517 C   0  0  0  0  0  0  0  0  0  0  0  0
    9.1702    1.7315   25.6536 C   0  0  0  0  0  0  0  0  0  0  0  0
    7.9036    1.7644   25.0499 C   0  0  0  0  0  0  0  0  0  0  0  0
    7.8156    1.9013   23.6599 C   0  0  0  0  0  0  0  0  0  0  0  0
    6.5882    1.8718   23.0960 F   0  0  0  0  0  0  0  0  0  0  0  0
    8.9537    2.0544   22.8470 C   0  0  0  0  0  0  0  0  0  0  0  0
    8.9569    2.0062   21.3288 C   0  0  0  0  0  0  0  0  0  0  0  0
    9.4614    0.6055   20.8752 C   0  0  0  0  0  0  0  0  0  0  0  0
    8.6058   -0.5249   21.3565 C   0  0  0  0  0  0  0  0  0  0  0  0
    8.8701   -1.3567   22.3448 N   0  0  0  0  0  0  0  0  0  0  0  0
    7.6835   -1.9954   22.5378 C   0  0  0  0  0  0  0  0  0  0  0  0
    7.4411   -2.9349   23.6702 C   0  0  0  0  0  0  0  0  0  0  0  0
    7.5036   -2.2658   25.0766 C   0  0  0  0  0  0  0  0  0  0  0  0
    8.8622   -3.3580   25.6140 S   0  0  0  0  0  0  0  0  0  0  0  0
    8.5756   -3.9598   23.9141 C   0  0  0  0  0  0  0  0  0  0  0  0
    6.7257   -1.6498   21.7063 N   0  0  0  0  0  0  0  0  0  0  0  0
    7.3295   -0.7174   20.9209 N   0  0  0  0  0  0  0  0  0  0  0  0
    6.6336   -0.0618   19.8741 C   0  0  0  0  0  0  0  0  0  0  0  0
    5.4380    0.6038   20.1466 C   0  0  0  0  0  0  0  0  0  0  0  0
    4.8238    1.2999   19.1039 C   0  0  0  0  0  0  0  0  0  0  0  0
    5.4130    1.2958   17.8345 C   0  0  0  0  0  0  0  0  0  0  0  0
    6.5422    0.6268   17.5590 N   0  0  0  0  0  0  0  0  0  0  0  0
    7.1327   -0.0344   18.5593 C   0  0  0  0  0  0  0  0  0  0  0  0
   10.2067    2.0469   23.4830 C   0  0  0  0  0  0  0  0  0  0  0  0
  1  2  1  0
  2  3  2  0
  3  4  1  0
  4  5  2  0
  5  6  1  0
  5  7  1  0
  7  8  1  0
  8  9  1  0
  9 10  1  0
 10 11  2  0
 11 12  1  0
 12 13  1  0
 13 14  1  0
 14 15  1  0
 15 16  1  0
 12 17  2  0
 17 18  1  0
 18 19  1  0
 19 20  2  0
 20 21  1  0
 21 22  2  0
 22 23  1  0
 23 24  2  0
  7 25  2  0
 25  2  1  0
 18 10  1  0
 24 19  1  0
 16 13  1  0
M  END
>  <cnnaffinity>  (315) 
-6.16604

>  <filename>  (315) 
Fc1ccc(F)c(CCc2nc(C3CSC3)nn2-c2cccnc2)c1

>  <enamine_id>  (315) 
PV-006824962867

$$$$

     RDKit          3D

 23 26  0  0  0  0  0  0  0  0999 V2000
    9.4671   -4.1595   24.1472 C   0  0  0  0  0  0  0  0  0  0  0  0
    9.0231   -3.3546   25.1163 C   0  0  0  0  0  0  0  0  0  0  0  0
    7.6519   -2.7213   25.1070 C   0  0  0  0  0  0  0  0  0  0  0  0
    6.8919   -2.9186   23.7695 C   0  0  1  0  0  0  0  0  0  0  0  0
    7.3456   -1.9362   22.7162 C   0  0  0  0  0  0  0  0  0  0  0  0
    6.5473   -1.5553   21.7415 N   0  0  0  0  0  0  0  0  0  0  0  0
    7.3184   -0.6835   21.0242 N   0  0  0  0  0  0  0  0  0  0  0  0
    6.7208    0.0279   19.9404 C   0  0  0  0  0  0  0  0  0  0  0  0
    5.5090    0.7041   20.1436 C   0  0  0  0  0  0  0  0  0  0  0  0
    4.9265    1.3602   19.0584 C   0  0  0  0  0  0  0  0  0  0  0  0
    5.5511    1.3004   17.8088 C   0  0  0  0  0  0  0  0  0  0  0  0
    6.6972    0.6348   17.5957 N   0  0  0  0  0  0  0  0  0  0  0  0
    7.2648    0.0220   18.6447 C   0  0  0  0  0  0  0  0  0  0  0  0
    8.5461   -0.6129   21.6192 C   0  0  0  0  0  0  0  0  0  0  0  0
    9.5983    0.4092   21.3106 C   0  0  0  0  0  0  0  0  0  0  0  0
    9.2190    1.7238   21.9676 C   0  0  0  0  0  0  0  0  0  0  0  0
    8.2955    2.5794   21.4639 C   0  0  0  0  0  0  0  0  0  0  0  0
    7.8616    3.7463   22.6263 S   0  0  0  0  0  0  0  0  0  0  0  0
    8.8889    3.1515   23.7887 N   0  0  0  0  0  0  0  0  0  0  0  0
    9.5240    2.1132   23.3182 C   0  0  0  0  0  0  0  0  0  0  0  0
    8.5929   -1.3985   22.6693 N   0  0  0  0  0  0  0  0  0  0  0  0
    7.0819   -4.3747   23.2697 C   0  0  0  0  0  0  0  0  0  0  0  0
    8.5805   -4.6340   23.0164 C   0  0  0  0  0  0  0  0  0  0  0  0
  1  2  2  0
  2  3  1  0
  3  4  1  0
  4  5  1  6
  5  6  2  0
  6  7  1  0
  7  8  1  0
  8  9  2  0
  9 10  1  0
 10 11  2  0
 11 12  1  0
 12 13  2  0
  7 14  1  0
 14 15  1  0
 15 16  1  0
 16 17  2  0
 17 18  1  0
 18 19  1  0
 19 20  2  0
 14 21  2  0
  4 22  1  0
 22 23  1  0
 23  1  1  0
 21  5  1  0
 13  8  1  0
 20 16  1  0
M  END
>  <cnnaffinity>  (316) 
-6.16416

>  <filename>  (316) 
C1=CCC(c2nc(Cc3cnsc3)n(-c3cccnc3)n2)CC1

>  <enamine_id>  (316) 
PV-006825835411

$$$$

     RDKit          3D

 26 29  0  0  0  0  0  0  0  0999 V2000
   12.0741    1.9459   22.4744 C   0  0  0  0  0  0  0  0  0  0  0  0
   10.8383    1.9024   23.3506 C   0  0  0  0  0  0  0  0  0  0  0  0
   10.9849    1.7124   24.7328 C   0  0  0  0  0  0  0  0  0  0  0  0
    9.8775    1.5667   25.5692 C   0  0  0  0  0  0  0  0  0  0  0  0
    8.5915    1.6836   25.0496 C   0  0  0  0  0  0  0  0  0  0  0  0
    8.4197    1.8600   23.6733 C   0  0  0  0  0  0  0  0  0  0  0  0
    6.8043    1.8726   23.0348 Cl  0  0  0  0  0  0  0  0  0  0  0  0
    9.5317    1.9133   22.8100 C   0  0  0  0  0  0  0  0  0  0  0  0
    9.3330    1.8515   21.4438 O   0  0  0  0  0  0  0  0  0  0  0  0
    9.5777    0.5397   20.9053 C   0  0  0  0  0  0  0  0  0  0  0  0
    8.6362   -0.5438   21.3763 C   0  0  0  0  0  0  0  0  0  0  0  0
    8.8564   -1.4100   22.3568 N   0  0  0  0  0  0  0  0  0  0  0  0
    7.6481   -2.0014   22.5277 C   0  0  0  0  0  0  0  0  0  0  0  0
    7.3644   -2.9471   23.6529 C   0  0  2  0  0  0  0  0  0  0  0  0
    6.4711   -4.1639   23.3373 C   0  0  0  0  0  0  0  0  0  0  0  0
    5.8165   -4.4691   24.6908 C   0  0  0  0  0  0  0  0  0  0  0  0
    5.9027   -3.2908   25.4767 O   0  0  0  0  0  0  0  0  0  0  0  0
    6.5710   -2.2599   24.7831 C   0  0  0  0  0  0  0  0  0  0  0  0
    6.7093   -1.5843   21.6996 N   0  0  0  0  0  0  0  0  0  0  0  0
    7.3582   -0.6799   20.9218 N   0  0  0  0  0  0  0  0  0  0  0  0
    6.6522   -0.0193   19.8802 C   0  0  0  0  0  0  0  0  0  0  0  0
    5.4426    0.6254   20.1506 C   0  0  0  0  0  0  0  0  0  0  0  0
    4.8232    1.3083   19.1003 C   0  0  0  0  0  0  0  0  0  0  0  0
    5.4075    1.2996   17.8270 C   0  0  0  0  0  0  0  0  0  0  0  0
    6.5436    0.6397   17.5540 N   0  0  0  0  0  0  0  0  0  0  0  0
    7.1389   -0.0058   18.5625 C   0  0  0  0  0  0  0  0  0  0  0  0
  1  2  1  0
  2  3  2  0
  3  4  1  0
  4  5  2  0
  5  6  1  0
  6  7  1  0
  6  8  2  0
  8  9  1  0
  9 10  1  0
 10 11  1  0
 11 12  2  0
 12 13  1  0
 14 13  1  6
 14 15  1  0
 15 16  1  0
 16 17  1  0
 17 18  1  0
 13 19  2  0
 19 20  1  0
 20 21  1  0
 21 22  2  0
 22 23  1  0
 23 24  2  0
 24 25  1  0
 25 26  2  0
  8  2  1  0
 20 11  1  0
 26 21  1  0
 18 14  1  0
M  END
>  <cnnaffinity>  (317) 
-6.16304

>  <filename>  (317) 
Cc1cccc(Cl)c1OCc1nc(C2CCOC2)nn1-c1cccnc1

>  <enamine_id>  (317) 
PV-006944534971

$$$$

     RDKit          3D

 25 28  0  0  0  0  0  0  0  0999 V2000
   10.9110    1.5490   23.6782 C   0  0  0  0  0  0  0  0  0  0  0  0
    9.5262    1.6939   23.2465 N   0  0  0  0  0  0  0  0  0  0  0  0
    9.3195    1.8709   21.8136 C   0  0  0  0  0  0  0  0  0  0  0  0
    9.5349    0.5835   20.9910 C   0  0  0  0  0  0  0  0  0  0  0  0
    8.6258   -0.5082   21.4137 C   0  0  0  0  0  0  0  0  0  0  0  0
    8.8642   -1.3615   22.3889 N   0  0  0  0  0  0  0  0  0  0  0  0
    7.6771   -1.9981   22.5377 C   0  0  0  0  0  0  0  0  0  0  0  0
    7.4198   -2.9835   23.6288 C   0  0  0  0  0  0  0  0  0  0  0  0
    6.6653   -4.2758   23.1954 C   0  0  0  0  0  0  0  0  0  0  0  0
    5.4841   -3.8883   24.1163 C   0  0  0  0  0  0  0  0  0  0  0  0
    6.2401   -2.6256   24.5881 C   0  0  0  0  0  0  0  0  0  0  0  0
    6.7406   -1.6323   21.6758 N   0  0  0  0  0  0  0  0  0  0  0  0
    7.3571   -0.6783   20.9332 N   0  0  0  0  0  0  0  0  0  0  0  0
    6.6527    0.0007   19.8997 C   0  0  0  0  0  0  0  0  0  0  0  0
    5.4386    0.6409   20.1646 C   0  0  0  0  0  0  0  0  0  0  0  0
    4.8115    1.3103   19.1094 C   0  0  0  0  0  0  0  0  0  0  0  0
    5.3987    1.2961   17.8383 C   0  0  0  0  0  0  0  0  0  0  0  0
    6.5570    0.6712   17.5770 N   0  0  0  0  0  0  0  0  0  0  0  0
    7.1647    0.0465   18.5915 C   0  0  0  0  0  0  0  0  0  0  0  0
    8.5057    1.5295   24.1568 C   0  0  0  0  0  0  0  0  0  0  0  0
    8.7506    1.5402   25.5438 C   0  0  0  0  0  0  0  0  0  0  0  0
    7.6904    1.3878   26.4233 C   0  0  0  0  0  0  0  0  0  0  0  0
    6.4209    1.2218   26.0564 N   0  0  0  0  0  0  0  0  0  0  0  0
    6.1931    1.2044   24.7420 C   0  0  0  0  0  0  0  0  0  0  0  0
    7.1662    1.3468   23.7647 C   0  0  0  0  0  0  0  0  0  0  0  0
  1  2  1  0
  2  3  1  0
  3  4  1  0
  4  5  1  0
  5  6  2  0
  6  7  1  0
  7  8  1  0
  8  9  1  0
  9 10  1  0
 10 11  1  0
  7 12  2  0
 12 13  1  0
 13 14  1  0
 14 15  2  0
 15 16  1  0
 16 17  2  0
 17 18  1  0
 18 19  2  0
  2 20  1  0
 20 21  2  0
 21 22  1  0
 22 23  2  0
 23 24  1  0
 24 25  2  0
 13  5  1  0
 19 14  1  0
 25 20  1  0
 11  8  1  0
M  END
>  <cnnaffinity>  (318) 
-6.16193

>  <filename>  (318) 
CN(CCc1nc(C2CCC2)nn1-c1cccnc1)c1ccncc1

>  <enamine_id>  (318) 
PV-006753985858

$$$$

     RDKit          3D

 23 26  0  0  0  0  0  0  0  0999 V2000
   12.4553    1.5572   23.5983 C   0  0  0  0  0  0  0  0  0  0  0  0
   12.7696    0.3950   22.8925 C   0  0  0  0  0  0  0  0  0  0  0  0
   11.8662   -0.0310   21.9179 C   0  0  0  0  0  0  0  0  0  0  0  0
   10.6920    0.6995   21.6898 C   0  0  0  0  0  0  0  0  0  0  0  0
    9.6659    0.2289   20.7018 C   0  0  0  0  0  0  0  0  0  0  0  0
    8.6344   -0.6085   21.3536 C   0  0  0  0  0  0  0  0  0  0  0  0
    8.8521   -1.4646   22.3256 N   0  0  0  0  0  0  0  0  0  0  0  0
    7.6203   -1.9905   22.5480 C   0  0  0  0  0  0  0  0  0  0  0  0
    7.3881   -2.9810   23.6319 C   0  0  1  0  0  0  0  0  0  0  0  0
    8.2310   -4.2709   23.5199 C   0  0  0  0  0  0  0  0  0  0  0  0
    8.3721   -4.7256   24.9763 C   0  0  0  0  0  0  0  0  0  0  0  0
    8.1134   -3.5902   25.7878 O   0  0  0  0  0  0  0  0  0  0  0  0
    7.7731   -2.4499   25.0243 C   0  0  0  0  0  0  0  0  0  0  0  0
    6.6723   -1.5485   21.7527 N   0  0  0  0  0  0  0  0  0  0  0  0
    7.3339   -0.6830   20.9390 N   0  0  0  0  0  0  0  0  0  0  0  0
    6.6520    0.0044   19.9018 C   0  0  0  0  0  0  0  0  0  0  0  0
    5.4367    0.6457   20.1652 C   0  0  0  0  0  0  0  0  0  0  0  0
    4.8125    1.3112   19.1089 C   0  0  0  0  0  0  0  0  0  0  0  0
    5.4010    1.2952   17.8373 C   0  0  0  0  0  0  0  0  0  0  0  0
    6.5595    0.6711   17.5770 N   0  0  0  0  0  0  0  0  0  0  0  0
    7.1666    0.0508   18.5936 C   0  0  0  0  0  0  0  0  0  0  0  0
   10.3900    1.8138   22.3622 N   0  0  0  0  0  0  0  0  0  0  0  0
   11.2643    2.2256   23.2928 C   0  0  0  0  0  0  0  0  0  0  0  0
  1  2  2  0
  2  3  1  0
  3  4  2  0
  4  5  1  0
  5  6  1  0
  6  7  2  0
  7  8  1  0
  9  8  1  6
  9 10  1  0
 10 11  1  0
 11 12  1  0
 12 13  1  0
  8 14  2  0
 14 15  1  0
 15 16  1  0
 16 17  2  0
 17 18  1  0
 18 19  2  0
 19 20  1  0
 20 21  2  0
  4 22  1  0
 22 23  2  0
 23  1  1  0
 15  6  1  0
 21 16  1  0
 13  9  1  0
M  END
>  <cnnaffinity>  (319) 
-6.16099

>  <filename>  (319) 
c1ccc(Cc2nc(C3CCOC3)nn2-c2cccnc2)nc1

>  <enamine_id>  (319) 
PV-006838205250

$$$$

     RDKit          3D

 24 27  0  0  0  0  0  0  0  0999 V2000
    9.0061    1.9028   26.2766 C   0  0  0  0  0  0  0  0  0  0  0  0
    8.5737    2.0222   24.8566 C   0  0  0  0  0  0  0  0  0  0  0  0
    7.3529    1.8995   24.4268 N   0  0  0  0  0  0  0  0  0  0  0  0
    7.3349    1.9668   23.0548 C   0  0  0  0  0  0  0  0  0  0  0  0
    8.5284    2.1447   22.4141 C   0  0  0  0  0  0  0  0  0  0  0  0
    8.9157    1.9212   20.9843 C   0  0  0  0  0  0  0  0  0  0  0  0
    9.5066    0.4991   20.7443 C   0  0  0  0  0  0  0  0  0  0  0  0
    8.6381   -0.5900   21.2814 C   0  0  0  0  0  0  0  0  0  0  0  0
    8.8729   -1.3759   22.3150 N   0  0  0  0  0  0  0  0  0  0  0  0
    7.6577   -1.9424   22.5499 C   0  0  0  0  0  0  0  0  0  0  0  0
    7.3724   -2.8056   23.7471 C   0  0  0  0  0  0  0  0  0  0  0  0
    6.4176   -3.9869   23.4746 C   0  0  0  0  0  0  0  0  0  0  0  0
    5.8825   -4.3882   24.8595 C   0  0  0  0  0  0  0  0  0  0  0  0
    5.9477   -3.1118   25.7373 C   0  0  0  0  0  0  0  0  0  0  0  0
    6.6595   -2.0331   24.8921 C   0  0  0  0  0  0  0  0  0  0  0  0
    6.7066   -1.5777   21.7034 N   0  0  0  0  0  0  0  0  0  0  0  0
    7.3522   -0.7394   20.8563 N   0  0  0  0  0  0  0  0  0  0  0  0
    6.6422   -0.0707   19.8244 C   0  0  0  0  0  0  0  0  0  0  0  0
    5.4373    0.5834   20.1071 C   0  0  0  0  0  0  0  0  0  0  0  0
    4.8207    1.3073   19.0821 C   0  0  0  0  0  0  0  0  0  0  0  0
    5.4169    1.3265   17.8149 C   0  0  0  0  0  0  0  0  0  0  0  0
    6.5505    0.6701   17.5273 N   0  0  0  0  0  0  0  0  0  0  0  0
    7.1394   -0.0186   18.5110 C   0  0  0  0  0  0  0  0  0  0  0  0
    9.7492    2.3362   23.6196 S   0  0  0  0  0  0  0  0  0  0  0  0
  1  2  1  0
  2  3  2  0
  3  4  1  0
  4  5  2  0
  5  6  1  0
  6  7  1  0
  7  8  1  0
  8  9  2  0
  9 10  1  0
 10 11  1  0
 11 12  1  0
 12 13  1  0
 13 14  1  0
 14 15  1  0
 10 16  2  0
 16 17  1  0
 17 18  1  0
 18 19  2  0
 19 20  1  0
 20 21  2  0
 21 22  1  0
 22 23  2  0
  5 24  1  0
 24  2  1  0
 17  8  1  0
 23 18  1  0
 15 11  1  0
M  END
>  <cnnaffinity>  (320) 
-6.16057

>  <filename>  (320) 
Cc1ncc(CCc2nc(C3CCCC3)nn2-c2cccnc2)s1

>  <enamine_id>  (320) 
PV-006859202213

$$$$

     RDKit          3D

 25 27  0  0  0  0  0  0  0  0999 V2000
    5.3592   -4.3914   22.8367 C   0  0  0  0  0  0  0  0  0  0  0  0
    6.6173   -4.5817   22.2385 O   0  0  0  0  0  0  0  0  0  0  0  0
    7.7725   -4.3647   23.0309 C   0  0  1  0  0  0  0  0  0  0  0  0
    8.4090   -5.7033   23.3739 C   0  0  0  0  0  0  0  0  0  0  0  0
    8.6985   -3.5346   22.1524 C   0  0  0  0  0  0  0  0  0  0  0  0
    8.1354   -2.1886   21.8953 C   0  0  0  0  0  0  0  0  0  0  0  0
    7.7166   -1.8262   20.7070 N   0  0  0  0  0  0  0  0  0  0  0  0
    7.2117   -0.5862   20.9213 N   0  0  0  0  0  0  0  0  0  0  0  0
    6.5443    0.0715   19.8589 C   0  0  0  0  0  0  0  0  0  0  0  0
    5.3408    0.7606   20.0483 C   0  0  0  0  0  0  0  0  0  0  0  0
    4.7735    1.3987   18.9403 C   0  0  0  0  0  0  0  0  0  0  0  0
    5.4340    1.3336   17.7092 C   0  0  0  0  0  0  0  0  0  0  0  0
    6.5744    0.6473   17.5175 N   0  0  0  0  0  0  0  0  0  0  0  0
    7.1010    0.0095   18.5667 C   0  0  0  0  0  0  0  0  0  0  0  0
    7.4597   -0.2263   22.2194 C   0  0  0  0  0  0  0  0  0  0  0  0
    7.2981    1.1500   22.8061 C   0  0  0  0  0  0  0  0  0  0  0  0
    8.5931    1.6233   23.4615 C   0  0  0  0  0  0  0  0  0  0  0  0
    8.8487    1.4246   24.8282 C   0  0  0  0  0  0  0  0  0  0  0  0
    7.5969    0.8276   25.8875 Cl  0  0  0  0  0  0  0  0  0  0  0  0
   10.1011    1.6815   25.3929 C   0  0  0  0  0  0  0  0  0  0  0  0
   11.0967    2.2472   24.5992 C   0  0  0  0  0  0  0  0  0  0  0  0
   10.8646    2.4716   23.2429 C   0  0  0  0  0  0  0  0  0  0  0  0
    9.6396    2.1280   22.6575 C   0  0  0  0  0  0  0  0  0  0  0  0
    9.4676    2.2872   21.1710 C   0  0  0  0  0  0  0  0  0  0  0  0
    7.9932   -1.2505   22.8626 N   0  0  0  0  0  0  0  0  0  0  0  0
  1  2  1  0
  2  3  1  0
  3  4  1  6
  3  5  1  0
  5  6  1  0
  6  7  2  0
  7  8  1  0
  8  9  1  0
  9 10  2  0
 10 11  1  0
 11 12  2  0
 12 13  1  0
 13 14  2  0
  8 15  1  0
 15 16  1  0
 16 17  1  0
 17 18  2  0
 18 19  1  0
 18 20  1  0
 20 21  2  0
 21 22  1  0
 22 23  2  0
 23 24  1  0
 15 25  2  0
 25  6  1  0
 14  9  1  0
 23 17  1  0
M  END
>  <cnnaffinity>  (321) 
-6.15621

>  <filename>  (321) 
COC(C)Cc1nc(Cc2c(C)cccc2Cl)n(-c2cccnc2)n1

>  <enamine_id>  (321) 
PV-006872507936

$$$$

     RDKit          3D

 26 29  0  0  0  0  0  0  0  0999 V2000
    8.6235    0.2904   27.2569 C   0  0  0  0  0  0  0  0  0  0  0  0
    9.3433    0.7403   26.0095 C   0  0  0  0  0  0  0  0  0  0  0  0
   10.7353    0.6240   25.9082 C   0  0  0  0  0  0  0  0  0  0  0  0
   11.4258    1.0669   24.7764 C   0  0  0  0  0  0  0  0  0  0  0  0
   12.9212    0.9219   24.6667 C   0  0  0  0  0  0  0  0  0  0  0  0
   10.6914    1.6334   23.7208 C   0  0  0  0  0  0  0  0  0  0  0  0
    9.2979    1.6941   23.7777 C   0  0  0  0  0  0  0  0  0  0  0  0
    8.5080    2.1073   22.7424 O   0  0  0  0  0  0  0  0  0  0  0  0
    9.0108    2.0421   21.4146 C   0  0  0  0  0  0  0  0  0  0  0  0
    9.4883    0.6429   20.9763 C   0  0  0  0  0  0  0  0  0  0  0  0
    8.6027   -0.4636   21.4374 C   0  0  0  0  0  0  0  0  0  0  0  0
    8.8654   -1.3200   22.4003 N   0  0  0  0  0  0  0  0  0  0  0  0
    7.6812   -1.9649   22.5695 C   0  0  0  0  0  0  0  0  0  0  0  0
    7.4241   -2.9040   23.7019 C   0  0  0  0  0  0  0  0  0  0  0  0
    8.6617   -3.7023   24.1837 C   0  0  0  0  0  0  0  0  0  0  0  0
    8.6542   -2.8899   25.8233 S   0  0  0  0  0  0  0  0  0  0  0  0
    7.1674   -2.1707   25.0543 C   0  0  0  0  0  0  0  0  0  0  0  0
    6.7317   -1.6119   21.7323 N   0  0  0  0  0  0  0  0  0  0  0  0
    7.3404   -0.6611   20.9681 N   0  0  0  0  0  0  0  0  0  0  0  0
    6.6514   -0.0093   19.9064 C   0  0  0  0  0  0  0  0  0  0  0  0
    5.4346    0.6304   20.1606 C   0  0  0  0  0  0  0  0  0  0  0  0
    4.8172    1.3039   19.1042 C   0  0  0  0  0  0  0  0  0  0  0  0
    5.4183    1.2935   17.8399 C   0  0  0  0  0  0  0  0  0  0  0  0
    6.5664    0.6487   17.5799 N   0  0  0  0  0  0  0  0  0  0  0  0
    7.1640    0.0144   18.5957 C   0  0  0  0  0  0  0  0  0  0  0  0
    8.6301    1.3122   24.9466 C   0  0  0  0  0  0  0  0  0  0  0  0
  1  2  1  0
  2  3  2  0
  3  4  1  0
  4  5  1  0
  4  6  2  0
  6  7  1  0
  7  8  1  0
  8  9  1  0
  9 10  1  0
 10 11  1  0
 11 12  2  0
 12 13  1  0
 13 14  1  0
 14 15  1  0
 15 16  1  0
 16 17  1  0
 13 18  2  0
 18 19  1  0
 19 20  1  0
 20 21  2  0
 21 22  1  0
 22 23  2  0
 23 24  1  0
 24 25  2  0
  7 26  2  0
 26  2  1  0
 19 11  1  0
 25 20  1  0
 17 14  1  0
M  END
>  <cnnaffinity>  (322) 
-6.15468

>  <filename>  (322) 
Cc1cc(C)cc(OCCc2nc(C3CSC3)nn2-c2cccnc2)c1

>  <enamine_id>  (322) 
PV-007124449519

$$$$

     RDKit          3D

 24 27  0  0  0  0  0  0  0  0999 V2000
   14.2028    5.5643   21.7451 C   0  0  0  0  0  0  0  0  0  0  0  0
   13.4238    4.3382   22.1731 C   0  0  0  0  0  0  0  0  0  0  0  0
   13.6901    3.6758   23.3824 C   0  0  0  0  0  0  0  0  0  0  0  0
   12.9985    2.5050   23.7269 C   0  0  0  0  0  0  0  0  0  0  0  0
   11.9496    2.0431   22.9385 C   0  0  0  0  0  0  0  0  0  0  0  0
   11.5901    2.7788   21.8052 C   0  0  0  0  0  0  0  0  0  0  0  0
   10.5057    2.4958   21.0366 O   0  0  0  0  0  0  0  0  0  0  0  0
    9.4151    1.7351   21.5263 C   0  0  0  0  0  0  0  0  0  0  0  0
    9.5775    0.3283   20.9550 C   0  0  0  0  0  0  0  0  0  0  0  0
    8.5642   -0.6462   21.4228 C   0  0  0  0  0  0  0  0  0  0  0  0
    8.7439   -1.4359   22.4544 N   0  0  0  0  0  0  0  0  0  0  0  0
    7.5508   -2.0778   22.5642 C   0  0  0  0  0  0  0  0  0  0  0  0
    7.3256   -3.0892   23.6230 C   0  0  0  0  0  0  0  0  0  0  0  0
    7.6174   -2.7463   25.0640 C   0  0  0  0  0  0  0  0  0  0  0  0
    6.2011   -2.9698   24.6196 C   0  0  0  0  0  0  0  0  0  0  0  0
    6.6486   -1.7355   21.6655 N   0  0  0  0  0  0  0  0  0  0  0  0
    7.3069   -0.8172   20.9082 N   0  0  0  0  0  0  0  0  0  0  0  0
    6.6297   -0.1144   19.8620 C   0  0  0  0  0  0  0  0  0  0  0  0
    5.4365    0.5691   20.1204 C   0  0  0  0  0  0  0  0  0  0  0  0
    4.8594    1.2958   19.0760 C   0  0  0  0  0  0  0  0  0  0  0  0
    5.4715    1.2924   17.8179 C   0  0  0  0  0  0  0  0  0  0  0  0
    6.5915    0.6047   17.5508 N   0  0  0  0  0  0  0  0  0  0  0  0
    7.1484   -0.0794   18.5559 C   0  0  0  0  0  0  0  0  0  0  0  0
   12.3770    3.8590   21.3791 C   0  0  0  0  0  0  0  0  0  0  0  0
  1  2  1  0
  2  3  2  0
  3  4  1  0
  4  5  2  0
  5  6  1  0
  6  7  1  0
  7  8  1  0
  8  9  1  0
  9 10  1  0
 10 11  2  0
 11 12  1  0
 12 13  1  0
 13 14  1  0
 14 15  1  0
 12 16  2  0
 16 17  1  0
 17 18  1  0
 18 19  2  0
 19 20  1  0
 20 21  2  0
 21 22  1  0
 22 23  2  0
  6 24  2  0
 24  2  1  0
 17 10  1  0
 23 18  1  0
 15 13  1  0
M  END
>  <cnnaffinity>  (323) 
-6.15451

>  <filename>  (323) 
Cc1cccc(OCCc2nc(C3CC3)nn2-c2cccnc2)c1

>  <enamine_id>  (323) 
PV-007130770279

$$$$

     RDKit          3D

 26 29  0  0  0  0  0  0  0  0999 V2000
   12.7249    1.0628   23.2991 C   0  0  0  0  0  0  0  0  0  0  0  0
   11.3916    1.7768   23.4039 C   0  0  0  0  0  0  0  0  0  0  0  0
   11.1342    2.6459   24.4636 C   0  0  0  0  0  0  0  0  0  0  0  0
    9.8887    3.2596   24.6571 C   0  0  0  0  0  0  0  0  0  0  0  0
    8.8659    3.0029   23.7500 C   0  0  0  0  0  0  0  0  0  0  0  0
    9.0875    2.1552   22.6608 C   0  0  0  0  0  0  0  0  0  0  0  0
   10.3376    1.5470   22.4862 C   0  0  0  0  0  0  0  0  0  0  0  0
   10.6263    0.6940   21.4492 O   0  0  0  0  0  0  0  0  0  0  0  0
    9.5940    0.1496   20.6483 C   0  0  0  0  0  0  0  0  0  0  0  0
    8.5537   -0.6775   21.3570 C   0  0  0  0  0  0  0  0  0  0  0  0
    8.7353   -1.4671   22.3920 N   0  0  0  0  0  0  0  0  0  0  0  0
    7.4999   -2.0028   22.6047 C   0  0  0  0  0  0  0  0  0  0  0  0
    7.2829   -2.9433   23.7622 C   0  0  0  0  0  0  0  0  0  0  0  0
    8.2465   -4.1596   23.7172 C   0  0  0  0  0  0  0  0  0  0  0  0
    8.1010   -5.0138   24.9800 C   0  0  0  0  0  0  0  0  0  0  0  0
    8.2942   -4.2556   26.1619 O   0  0  0  0  0  0  0  0  0  0  0  0
    7.4252   -3.1440   26.2900 C   0  0  0  0  0  0  0  0  0  0  0  0
    7.5250   -2.1940   25.0981 C   0  0  0  0  0  0  0  0  0  0  0  0
    6.5761   -1.5965   21.7608 N   0  0  0  0  0  0  0  0  0  0  0  0
    7.2586   -0.7684   20.9233 N   0  0  0  0  0  0  0  0  0  0  0  0
    6.5922   -0.0764   19.8754 C   0  0  0  0  0  0  0  0  0  0  0  0
    5.3985    0.6097   20.1313 C   0  0  0  0  0  0  0  0  0  0  0  0
    4.8093    1.3150   19.0787 C   0  0  0  0  0  0  0  0  0  0  0  0
    5.4148    1.3085   17.8157 C   0  0  0  0  0  0  0  0  0  0  0  0
    6.5374    0.6256   17.5534 N   0  0  0  0  0  0  0  0  0  0  0  0
    7.1029   -0.0490   18.5614 C   0  0  0  0  0  0  0  0  0  0  0  0
  1  2  1  0
  2  3  2  0
  3  4  1  0
  4  5  2  0
  5  6  1  0
  6  7  2  0
  7  8  1  0
  8  9  1  0
  9 10  1  0
 10 11  2  0
 11 12  1  0
 12 13  1  0
 13 14  1  0
 14 15  1  0
 15 16  1  0
 16 17  1  0
 17 18  1  0
 12 19  2  0
 19 20  1  0
 20 21  1  0
 21 22  2  0
 22 23  1  0
 23 24  2  0
 24 25  1  0
 25 26  2  0
  7  2  1  0
 20 10  1  0
 26 21  1  0
 18 13  1  0
M  END
>  <cnnaffinity>  (324) 
-6.15438

>  <filename>  (324) 
Cc1ccccc1OCc1nc(C2CCOCC2)nn1-c1cccnc1

>  <enamine_id>  (324) 
PV-006962288071

$$$$

     RDKit          3D

 24 27  0  0  0  0  0  0  0  0999 V2000
    4.8135    1.3080   19.1110 C   0  0  0  0  0  0  0  0  0  0  0  0
    5.4012    1.2957   17.8384 C   0  0  0  0  0  0  0  0  0  0  0  0
    6.5610    0.6736   17.5765 N   0  0  0  0  0  0  0  0  0  0  0  0
    7.1689    0.0542   18.5942 C   0  0  0  0  0  0  0  0  0  0  0  0
    6.6604    0.0051   19.9043 C   0  0  0  0  0  0  0  0  0  0  0  0
    7.3737   -0.6671   20.9404 N   0  0  0  0  0  0  0  0  0  0  0  0
    6.7637   -1.6156   21.6937 N   0  0  0  0  0  0  0  0  0  0  0  0
    7.7001   -1.9605   22.5615 C   0  0  0  0  0  0  0  0  0  0  0  0
    7.4543   -2.9698   23.6415 C   0  0  0  0  0  0  0  0  0  0  0  0
    6.4039   -2.5153   24.6798 C   0  0  0  0  0  0  0  0  0  0  0  0
    5.8175   -3.8051   25.2770 C   0  0  0  0  0  0  0  0  0  0  0  0
    6.1795   -4.9554   24.3043 C   0  0  0  0  0  0  0  0  0  0  0  0
    6.9306   -4.3229   23.1207 C   0  0  0  0  0  0  0  0  0  0  0  0
    8.8733   -1.2943   22.4300 N   0  0  0  0  0  0  0  0  0  0  0  0
    8.6353   -0.4759   21.4230 C   0  0  0  0  0  0  0  0  0  0  0  0
    9.5301    0.6120   20.9447 C   0  0  0  0  0  0  0  0  0  0  0  0
    9.0504    2.0152   21.3529 C   0  0  0  0  0  0  0  0  0  0  0  0
    9.0081    2.2071   22.8760 C   0  0  0  0  0  0  0  0  0  0  0  0
    8.6287    3.5514   23.2689 N   0  0  0  0  0  0  0  0  0  0  0  0
    9.4506    4.6216   23.3857 C   0  0  0  0  0  0  0  0  0  0  0  0
    8.6535    5.7133   23.6301 C   0  0  0  0  0  0  0  0  0  0  0  0
    7.3415    5.1939   23.6262 C   0  0  0  0  0  0  0  0  0  0  0  0
    7.3390    3.8867   23.4008 N   0  0  0  0  0  0  0  0  0  0  0  0
    5.4407    0.6398   20.1687 C   0  0  0  0  0  0  0  0  0  0  0  0
  1  2  2  0
  2  3  1  0
  3  4  2  0
  4  5  1  0
  5  6  1  0
  6  7  1  0
  7  8  2  0
  8  9  1  0
  9 10  1  0
 10 11  1  0
 11 12  1  0
 12 13  1  0
  8 14  1  0
 14 15  2  0
 15 16  1  0
 16 17  1  0
 17 18  1  0
 18 19  1  0
 19 20  1  0
 20 21  2  0
 21 22  1  0
 22 23  2  0
  5 24  2  0
 24  1  1  0
 15  6  1  0
 23 19  1  0
 13  9  1  0
M  END
>  <cnnaffinity>  (325) 
-6.15361

>  <filename>  (325) 
c1cncc(-n2nc(C3CCCC3)nc2CCCn2cccn2)c1

>  <enamine_id>  (325) 
PV-006779411765

$$$$

     RDKit          3D

 26 29  0  0  0  0  0  0  0  0999 V2000
    6.7294   -2.4284   27.3235 C   0  0  0  0  0  0  0  0  0  0  0  0
    6.9461   -3.1330   26.0451 N   0  0  2  0  0  4  0  0  0  0  0  0
    8.0838   -4.1389   26.1504 C   0  0  0  0  0  0  0  0  0  0  0  0
    8.2405   -4.8699   24.8179 C   0  0  0  0  0  0  0  0  0  0  0  0
    8.4288   -3.9774   23.7263 O   0  0  0  0  0  0  0  0  0  0  0  0
    7.3773   -3.0185   23.5976 C   0  0  2  0  0  0  0  0  0  0  0  0
    7.6312   -2.0583   22.4858 C   0  0  0  0  0  0  0  0  0  0  0  0
    6.6798   -1.6665   21.6622 N   0  0  0  0  0  0  0  0  0  0  0  0
    7.2980   -0.7137   20.9133 N   0  0  0  0  0  0  0  0  0  0  0  0
    6.6011   -0.0307   19.8706 C   0  0  0  0  0  0  0  0  0  0  0  0
    5.3901    0.6207   20.1313 C   0  0  0  0  0  0  0  0  0  0  0  0
    4.7803    1.3152   19.0817 C   0  0  0  0  0  0  0  0  0  0  0  0
    5.3835    1.3076   17.8186 C   0  0  0  0  0  0  0  0  0  0  0  0
    6.5202    0.6445   17.5513 N   0  0  0  0  0  0  0  0  0  0  0  0
    7.1134   -0.0003   18.5617 C   0  0  0  0  0  0  0  0  0  0  0  0
    8.5776   -0.5586   21.3711 C   0  0  0  0  0  0  0  0  0  0  0  0
    9.6464    0.2981   20.7844 C   0  0  0  0  0  0  0  0  0  0  0  0
   10.3740    1.1040   21.8402 C   0  0  0  0  0  0  0  0  0  0  0  0
   11.6453    0.7076   22.2779 C   0  0  0  0  0  0  0  0  0  0  0  0
   12.2892    1.3477   23.3394 C   0  0  0  0  0  0  0  0  0  0  0  0
   11.6451    2.4063   23.9791 C   0  0  0  0  0  0  0  0  0  0  0  0
   10.3865    2.8361   23.5616 C   0  0  0  0  0  0  0  0  0  0  0  0
    9.7607    2.1803   22.5002 C   0  0  0  0  0  0  0  0  0  0  0  0
    8.1703    2.7180   22.0372 Cl  0  0  0  0  0  0  0  0  0  0  0  0
    8.7982   -1.3794   22.3772 N   0  0  0  0  0  0  0  0  0  0  0  0
    7.2075   -2.1882   24.8913 C   0  0  0  0  0  0  0  0  0  0  0  0
  2  1  1  1
  2  3  1  0
  3  4  1  0
  4  5  1  0
  5  6  1  0
  6  7  1  6
  7  8  2  0
  8  9  1  0
  9 10  1  0
 10 11  2  0
 11 12  1  0
 12 13  2  0
 13 14  1  0
 14 15  2  0
  9 16  1  0
 16 17  1  0
 17 18  1  0
 18 19  2  0
 19 20  1  0
 20 21  2  0
 21 22  1  0
 22 23  2  0
 23 24  1  0
 16 25  2  0
  6 26  1  0
 26  2  1  0
 25  7  1  0
 15 10  1  0
 23 18  1  0
M  CHG  1   2   1
M  END
>  <cnnaffinity>  (326) 
-6.15335

>  <filename>  (326) 
C[NH+]1CCOC(c2nc(Cc3ccccc3Cl)n(-c3cccnc3)n2)C1

>  <enamine_id>  (326) 
PV-007020083020

$$$$

     RDKit          3D

 27 30  0  0  0  0  0  0  0  0999 V2000
    7.0801    6.0321   26.4093 C   0  0  0  0  0  0  0  0  0  0  0  0
    7.5568    4.9442   25.4765 C   0  0  0  0  0  0  0  0  0  0  0  0
    7.7027    5.1821   24.1068 C   0  0  0  0  0  0  0  0  0  0  0  0
    8.1652    4.1908   23.2345 C   0  0  0  0  0  0  0  0  0  0  0  0
    8.4976    2.9136   23.7128 C   0  0  0  0  0  0  0  0  0  0  0  0
    8.9605    1.8983   22.9434 O   0  0  0  0  0  0  0  0  0  0  0  0
    9.0430    2.0032   21.5245 C   0  0  0  0  0  0  0  0  0  0  0  0
    9.5052    0.6441   20.9968 C   0  0  0  0  0  0  0  0  0  0  0  0
    8.6158   -0.4628   21.4397 C   0  0  0  0  0  0  0  0  0  0  0  0
    8.8381   -1.2765   22.4474 N   0  0  0  0  0  0  0  0  0  0  0  0
    7.6475   -1.9153   22.5929 C   0  0  0  0  0  0  0  0  0  0  0  0
    7.4089   -2.8775   23.7115 C   0  0  2  0  0  0  0  0  0  0  0  0
    8.6572   -3.6213   24.2241 C   0  0  0  0  0  0  0  0  0  0  0  0
    8.0821   -4.9255   24.7802 C   0  0  0  0  0  0  0  0  0  0  0  0
    6.8076   -5.1015   24.1799 O   0  0  0  0  0  0  0  0  0  0  0  0
    6.4684   -4.0252   23.3294 C   0  0  0  0  0  0  0  0  0  0  0  0
    6.7296   -1.5899   21.7030 N   0  0  0  0  0  0  0  0  0  0  0  0
    7.3615   -0.6622   20.9398 N   0  0  0  0  0  0  0  0  0  0  0  0
    6.6601    0.0101   19.9001 C   0  0  0  0  0  0  0  0  0  0  0  0
    5.4394    0.6428   20.1673 C   0  0  0  0  0  0  0  0  0  0  0  0
    4.8126    1.3097   19.1102 C   0  0  0  0  0  0  0  0  0  0  0  0
    5.4029    1.2954   17.8380 C   0  0  0  0  0  0  0  0  0  0  0  0
    6.5612    0.6734   17.5769 N   0  0  0  0  0  0  0  0  0  0  0  0
    7.1701    0.0541   18.5908 C   0  0  0  0  0  0  0  0  0  0  0  0
    8.3540    2.6735   25.1027 C   0  0  0  0  0  0  0  0  0  0  0  0
    8.7467    1.1233   25.7955 Cl  0  0  0  0  0  0  0  0  0  0  0  0
    7.8936    3.6733   25.9612 C   0  0  0  0  0  0  0  0  0  0  0  0
  1  2  1  0
  2  3  2  0
  3  4  1  0
  4  5  2  0
  5  6  1  0
  6  7  1  0
  7  8  1  0
  8  9  1  0
  9 10  2  0
 10 11  1  0
 12 11  1  6
 12 13  1  0
 13 14  1  0
 14 15  1  0
 15 16  1  0
 11 17  2  0
 17 18  1  0
 18 19  1  0
 19 20  2  0
 20 21  1  0
 21 22  2  0
 22 23  1  0
 23 24  2  0
  5 25  1  0
 25 26  1  0
 25 27  2  0
 27  2  1  0
 18  9  1  0
 24 19  1  0
 16 12  1  0
M  END
>  <cnnaffinity>  (327) 
-6.14969

>  <filename>  (327) 
Cc1ccc(OCCc2nc(C3CCOC3)nn2-c2cccnc2)c(Cl)c1

>  <enamine_id>  (327) 
PV-006926681727

$$$$

     RDKit          3D

 24 27  0  0  0  0  0  0  0  0999 V2000
    6.6890    1.6320   23.3980 Cl  0  0  0  0  0  0  0  0  0  0  0  0
    8.3495    1.7326   23.9137 C   0  0  0  0  0  0  0  0  0  0  0  0
    8.5408    1.4954   25.2025 N   0  0  0  0  0  0  0  0  0  0  0  0
    9.8016    1.5039   25.6501 C   0  0  0  0  0  0  0  0  0  0  0  0
   10.9002    1.8021   24.8469 C   0  0  0  0  0  0  0  0  0  0  0  0
   10.6693    2.0324   23.4914 C   0  0  0  0  0  0  0  0  0  0  0  0
    9.3663    1.9984   22.9706 C   0  0  0  0  0  0  0  0  0  0  0  0
    9.1777    1.9978   21.4682 C   0  0  0  0  0  0  0  0  0  0  0  0
    9.5333    0.5947   20.9024 C   0  0  0  0  0  0  0  0  0  0  0  0
    8.6382   -0.5069   21.3787 C   0  0  0  0  0  0  0  0  0  0  0  0
    8.8648   -1.3744   22.3496 N   0  0  0  0  0  0  0  0  0  0  0  0
    7.6547   -1.9806   22.5122 C   0  0  0  0  0  0  0  0  0  0  0  0
    7.3994   -2.9370   23.6303 C   0  0  0  0  0  0  0  0  0  0  0  0
    6.5254   -4.1896   23.3191 C   0  0  0  0  0  0  0  0  0  0  0  0
    5.4468   -3.6937   24.3057 C   0  0  0  0  0  0  0  0  0  0  0  0
    6.3363   -2.4947   24.6927 C   0  0  0  0  0  0  0  0  0  0  0  0
    6.7226   -1.5916   21.6644 N   0  0  0  0  0  0  0  0  0  0  0  0
    7.3650   -0.6642   20.9102 N   0  0  0  0  0  0  0  0  0  0  0  0
    6.6714   -0.0029   19.8663 C   0  0  0  0  0  0  0  0  0  0  0  0
    5.4607    0.6340   20.1496 C   0  0  0  0  0  0  0  0  0  0  0  0
    4.8208    1.3060   19.1071 C   0  0  0  0  0  0  0  0  0  0  0  0
    5.4010    1.2963   17.8319 C   0  0  0  0  0  0  0  0  0  0  0  0
    6.5388    0.6438   17.5438 N   0  0  0  0  0  0  0  0  0  0  0  0
    7.1564    0.0081   18.5450 C   0  0  0  0  0  0  0  0  0  0  0  0
  1  2  1  0
  2  3  2  0
  3  4  1  0
  4  5  2  0
  5  6  1  0
  6  7  2  0
  7  8  1  0
  8  9  1  0
  9 10  1  0
 10 11  2  0
 11 12  1  0
 12 13  1  0
 13 14  1  0
 14 15  1  0
 15 16  1  0
 12 17  2  0
 17 18  1  0
 18 19  1  0
 19 20  2  0
 20 21  1  0
 21 22  2  0
 22 23  1  0
 23 24  2  0
  7  2  1  0
 18 10  1  0
 24 19  1  0
 16 13  1  0
M  END
>  <cnnaffinity>  (328) 
-6.14948

>  <filename>  (328) 
Clc1ncccc1CCc1nc(C2CCC2)nn1-c1cccnc1

>  <enamine_id>  (328) 
PV-006926292205

$$$$

     RDKit          3D

 22 25  0  0  0  0  0  0  0  0999 V2000
    4.8125    1.3062   19.1086 C   0  0  0  0  0  0  0  0  0  0  0  0
    5.4034    1.2933   17.8393 C   0  0  0  0  0  0  0  0  0  0  0  0
    6.5585    0.6631   17.5775 N   0  0  0  0  0  0  0  0  0  0  0  0
    7.1729    0.0432   18.5923 C   0  0  0  0  0  0  0  0  0  0  0  0
    6.6698    0.0081   19.9045 C   0  0  0  0  0  0  0  0  0  0  0  0
    7.3624   -0.6489   20.9643 N   0  0  0  0  0  0  0  0  0  0  0  0
    6.7379   -1.5933   21.7153 N   0  0  0  0  0  0  0  0  0  0  0  0
    7.6752   -1.9581   22.5692 C   0  0  0  0  0  0  0  0  0  0  0  0
    7.4715   -3.0241   23.5814 C   0  0  0  0  0  0  0  0  0  0  0  0
    8.4507   -4.1722   23.6717 C   0  0  0  0  0  0  0  0  0  0  0  0
    7.0603   -4.4109   23.1399 C   0  0  0  0  0  0  0  0  0  0  0  0
    8.8470   -1.2717   22.4612 N   0  0  0  0  0  0  0  0  0  0  0  0
    8.6247   -0.4597   21.4470 C   0  0  0  0  0  0  0  0  0  0  0  0
    9.5253    0.6150   20.9489 C   0  0  0  0  0  0  0  0  0  0  0  0
    9.0197    2.0155   21.3374 C   0  0  0  0  0  0  0  0  0  0  0  0
    8.8686    2.2116   22.8609 C   0  0  0  0  0  0  0  0  0  0  0  0
   10.1993    2.0925   23.5670 C   0  0  0  0  0  0  0  0  0  0  0  0
   10.6164    1.0340   24.3137 C   0  0  0  0  0  0  0  0  0  0  0  0
   12.2743    1.1574   24.7564 S   0  0  0  0  0  0  0  0  0  0  0  0
   12.4344    2.6566   23.9289 C   0  0  0  0  0  0  0  0  0  0  0  0
   11.2580    3.0454   23.3715 C   0  0  0  0  0  0  0  0  0  0  0  0
    5.4484    0.6386   20.1598 C   0  0  0  0  0  0  0  0  0  0  0  0
  1  2  2  0
  2  3  1  0
  3  4  2  0
  4  5  1  0
  5  6  1  0
  6  7  1  0
  7  8  2  0
  8  9  1  0
  9 10  1  0
 10 11  1  0
  8 12  1  0
 12 13  2  0
 13 14  1  0
 14 15  1  0
 15 16  1  0
 16 17  1  0
 17 18  2  0
 18 19  1  0
 19 20  1  0
 20 21  2  0
  5 22  2  0
 22  1  1  0
 13  6  1  0
 21 17  1  0
 11  9  1  0
M  END
>  <cnnaffinity>  (329) 
-6.14863

>  <filename>  (329) 
c1cncc(-n2nc(C3CC3)nc2CCCc2ccsc2)c1

>  <enamine_id>  (329) 
PV-007094898917

$$$$

     RDKit          3D

 26 29  0  0  0  0  0  0  0  0999 V2000
    7.0451    7.4338   23.9098 F   0  0  0  0  0  0  0  0  0  0  0  0
    7.4839    6.1939   23.6569 C   0  0  0  0  0  0  0  0  0  0  0  0
    6.5744    5.1616   23.4542 C   0  0  0  0  0  0  0  0  0  0  0  0
    7.0553    3.8733   23.2030 C   0  0  0  0  0  0  0  0  0  0  0  0
    8.4286    3.6073   23.1636 C   0  0  0  0  0  0  0  0  0  0  0  0
    8.9270    2.2293   22.8240 C   0  0  0  0  0  0  0  0  0  0  0  0
    9.0292    2.0179   21.3101 C   0  0  0  0  0  0  0  0  0  0  0  0
    9.5255    0.6119   20.9377 C   0  0  0  0  0  0  0  0  0  0  0  0
    8.6243   -0.4747   21.4331 C   0  0  0  0  0  0  0  0  0  0  0  0
    8.8482   -1.2834   22.4461 N   0  0  0  0  0  0  0  0  0  0  0  0
    7.6719   -1.9485   22.5786 C   0  0  0  0  0  0  0  0  0  0  0  0
    7.4684   -2.9326   23.6784 C   0  0  0  0  0  0  0  0  0  0  0  0
    8.5996   -3.9830   23.8328 C   0  0  0  0  0  0  0  0  0  0  0  0
    8.9763   -3.4329   25.5302 S   0  0  0  0  0  0  0  0  0  0  0  0
    7.5916   -2.3263   25.1048 C   0  0  0  0  0  0  0  0  0  0  0  0
    6.7432   -1.6151   21.7078 N   0  0  0  0  0  0  0  0  0  0  0  0
    7.3613   -0.6707   20.9448 N   0  0  0  0  0  0  0  0  0  0  0  0
    6.6608    0.0080   19.9052 C   0  0  0  0  0  0  0  0  0  0  0  0
    5.4407    0.6441   20.1669 C   0  0  0  0  0  0  0  0  0  0  0  0
    4.8132    1.3094   19.1092 C   0  0  0  0  0  0  0  0  0  0  0  0
    5.4027    1.2959   17.8362 C   0  0  0  0  0  0  0  0  0  0  0  0
    6.5615    0.6737   17.5775 N   0  0  0  0  0  0  0  0  0  0  0  0
    7.1703    0.0562   18.5939 C   0  0  0  0  0  0  0  0  0  0  0  0
    9.3339    4.6618   23.3516 C   0  0  0  0  0  0  0  0  0  0  0  0
    8.8602    5.9447   23.6004 C   0  0  0  0  0  0  0  0  0  0  0  0
    9.7255    6.9496   23.7951 F   0  0  0  0  0  0  0  0  0  0  0  0
  1  2  1  0
  2  3  2  0
  3  4  1  0
  4  5  2  0
  5  6  1  0
  6  7  1  0
  7  8  1  0
  8  9  1  0
  9 10  2  0
 10 11  1  0
 11 12  1  0
 12 13  1  0
 13 14  1  0
 14 15  1  0
 11 16  2  0
 16 17  1  0
 17 18  1  0
 18 19  2  0
 19 20  1  0
 20 21  2  0
 21 22  1  0
 22 23  2  0
  5 24  1  0
 24 25  2  0
 25 26  1  0
 25  2  1  0
 17  9  1  0
 23 18  1  0
 15 12  1  0
M  END
>  <cnnaffinity>  (330) 
-6.14747

>  <filename>  (330) 
Fc1ccc(CCCc2nc(C3CSC3)nn2-c2cccnc2)cc1F

>  <enamine_id>  (330) 
PV-007073676925

$$$$

     RDKit          3D

 26 29  0  0  0  0  0  0  0  0999 V2000
    6.5494    1.2599   23.9621 C   0  0  0  0  0  0  0  0  0  0  0  0
    7.5022    1.2216   22.7584 C   0  0  1  0  0  0  0  0  0  0  0  0
    8.9103    1.7816   23.1248 C   0  0  0  0  0  0  0  0  0  0  0  0
    8.8377    3.2498   23.4737 C   0  0  0  0  0  0  0  0  0  0  0  0
    8.8939    3.7366   24.7901 C   0  0  0  0  0  0  0  0  0  0  0  0
    8.8082    5.1096   25.0529 C   0  0  0  0  0  0  0  0  0  0  0  0
    8.6759    5.9985   23.9858 C   0  0  0  0  0  0  0  0  0  0  0  0
    8.6315    7.3212   24.2286 F   0  0  0  0  0  0  0  0  0  0  0  0
    8.5853    5.5452   22.6710 C   0  0  0  0  0  0  0  0  0  0  0  0
    8.6410    4.1730   22.4333 C   0  0  0  0  0  0  0  0  0  0  0  0
    7.5879   -0.1698   22.2110 C   0  0  0  0  0  0  0  0  0  0  0  0
    8.0968   -1.1795   22.8974 N   0  0  0  0  0  0  0  0  0  0  0  0
    8.0601   -2.1959   22.0122 C   0  0  0  0  0  0  0  0  0  0  0  0
    8.6169   -3.5502   22.2883 C   0  0  2  0  0  0  0  0  0  0  0  0
    7.8418   -4.7323   21.6561 C   0  0  0  0  0  0  0  0  0  0  0  0
    8.2448   -5.9177   22.5463 C   0  0  0  0  0  0  0  0  0  0  0  0
    8.8203   -5.3787   23.7268 O   0  0  0  0  0  0  0  0  0  0  0  0
    8.6712   -3.9716   23.7570 C   0  0  0  0  0  0  0  0  0  0  0  0
    7.5721   -1.8930   20.8241 N   0  0  0  0  0  0  0  0  0  0  0  0
    7.2327   -0.5889   20.9573 N   0  0  0  0  0  0  0  0  0  0  0  0
    6.5639    0.0591   19.8840 C   0  0  0  0  0  0  0  0  0  0  0  0
    5.3646    0.7517   20.0820 C   0  0  0  0  0  0  0  0  0  0  0  0
    4.7847    1.3915   18.9830 C   0  0  0  0  0  0  0  0  0  0  0  0
    5.4285    1.3297   17.7444 C   0  0  0  0  0  0  0  0  0  0  0  0
    6.5540    0.6222   17.5380 N   0  0  0  0  0  0  0  0  0  0  0  0
    7.0880   -0.0241   18.5794 C   0  0  0  0  0  0  0  0  0  0  0  0
  2  1  1  1
  2  3  1  0
  3  4  1  0
  4  5  2  0
  5  6  1  0
  6  7  2  0
  7  8  1  0
  7  9  1  0
  9 10  2  0
  2 11  1  0
 11 12  2  0
 12 13  1  0
 14 13  1  1
 14 15  1  0
 15 16  1  0
 16 17  1  0
 17 18  1  0
 13 19  2  0
 19 20  1  0
 20 21  1  0
 21 22  2  0
 22 23  1  0
 23 24  2  0
 24 25  1  0
 25 26  2  0
 10  4  1  0
 20 11  1  0
 26 21  1  0
 18 14  1  0
M  END
>  <cnnaffinity>  (331) 
-6.14625

>  <filename>  (331) 
CC(Cc1ccc(F)cc1)c1nc(C2CCOC2)nn1-c1cccnc1

>  <enamine_id>  (331) 
PV-007045786116

$$$$

     RDKit          3D

 26 29  0  0  0  0  0  0  0  0999 V2000
    8.4754    2.0899   26.9520 O   0  0  0  0  0  0  0  0  0  0  0  0
    8.5106    2.0380   25.7323 C   0  0  0  0  0  0  0  0  0  0  0  0
    7.3891    1.8013   24.8319 C   0  0  0  0  0  0  0  0  0  0  0  0
    7.5793    1.8221   23.4832 C   0  0  0  0  0  0  0  0  0  0  0  0
    8.9115    2.0305   22.9311 C   0  0  0  0  0  0  0  0  0  0  0  0
    9.1446    1.9686   21.4314 C   0  0  0  0  0  0  0  0  0  0  0  0
    9.5612    0.5624   20.8865 C   0  0  0  0  0  0  0  0  0  0  0  0
    8.6552   -0.5561   21.3231 C   0  0  0  0  0  0  0  0  0  0  0  0
    8.8617   -1.3891   22.3293 N   0  0  0  0  0  0  0  0  0  0  0  0
    7.6288   -1.9267   22.5520 C   0  0  0  0  0  0  0  0  0  0  0  0
    7.3514   -2.8248   23.7332 C   0  0  0  0  0  0  0  0  0  0  0  0
    6.7682   -2.0069   24.9406 C   0  0  0  0  0  0  0  0  0  0  0  0
    5.9298   -2.8532   25.9301 C   0  0  0  0  0  0  0  0  0  0  0  0
    6.4113   -4.3086   25.9933 C   0  0  0  0  0  0  0  0  0  0  0  0
    6.3084   -5.0054   24.6129 C   0  0  0  0  0  0  0  0  0  0  0  0
    6.4638   -4.0477   23.3995 C   0  0  0  0  0  0  0  0  0  0  0  0
    6.6896   -1.5097   21.7233 N   0  0  0  0  0  0  0  0  0  0  0  0
    7.3649   -0.6675   20.8966 N   0  0  0  0  0  0  0  0  0  0  0  0
    6.6737   -0.0166   19.8438 C   0  0  0  0  0  0  0  0  0  0  0  0
    5.4610    0.6196   20.1148 C   0  0  0  0  0  0  0  0  0  0  0  0
    4.8310    1.3114   19.0781 C   0  0  0  0  0  0  0  0  0  0  0  0
    5.4175    1.3216   17.8076 C   0  0  0  0  0  0  0  0  0  0  0  0
    6.5511    0.6616   17.5261 N   0  0  0  0  0  0  0  0  0  0  0  0
    7.1561    0.0051   18.5240 C   0  0  0  0  0  0  0  0  0  0  0  0
    9.9461    2.2130   23.7029 N   0  0  0  0  0  0  0  0  0  0  0  0
    9.7101    2.2202   25.0501 N   0  0  0  0  0  0  0  0  0  0  0  0
  1  2  2  0
  2  3  1  0
  3  4  2  0
  4  5  1  0
  5  6  1  0
  6  7  1  0
  7  8  1  0
  8  9  2  0
  9 10  1  0
 10 11  1  0
 11 12  1  0
 12 13  1  0
 13 14  1  0
 14 15  1  0
 15 16  1  0
 10 17  2  0
 17 18  1  0
 18 19  1  0
 19 20  2  0
 20 21  1  0
 21 22  2  0
 22 23  1  0
 23 24  2  0
  5 25  2  0
 25 26  1  0
 26  2  1  0
 18  8  1  0
 24 19  1  0
 16 11  1  0
M  END
>  <cnnaffinity>  (332) 
-6.14619

>  <filename>  (332) 
O=c1ccc(CCc2nc(C3CCCCC3)nn2-c2cccnc2)n[nH]1

>  <enamine_id>  (332) 
PV-006970413196

$$$$

     RDKit          3D

 24 26  0  0  0  0  0  0  0  0999 V2000
    7.6112   -6.3602   22.1714 C   0  0  0  0  0  0  0  0  0  0  0  0
    7.9816   -5.5419   23.4001 C   0  0  0  0  0  0  0  0  0  0  0  0
    7.7404   -4.1590   23.2070 O   0  0  0  0  0  0  0  0  0  0  0  0
    8.6188   -3.4861   22.3107 C   0  0  0  0  0  0  0  0  0  0  0  0
    8.1220   -2.1025   21.9889 C   0  0  0  0  0  0  0  0  0  0  0  0
    7.7362   -1.7837   20.7664 N   0  0  0  0  0  0  0  0  0  0  0  0
    7.2740   -0.5187   20.9064 N   0  0  0  0  0  0  0  0  0  0  0  0
    6.5768    0.1056   19.8418 C   0  0  0  0  0  0  0  0  0  0  0  0
    5.3553    0.7604   20.0470 C   0  0  0  0  0  0  0  0  0  0  0  0
    4.7568    1.3865   18.9511 C   0  0  0  0  0  0  0  0  0  0  0  0
    5.3961    1.3386   17.7092 C   0  0  0  0  0  0  0  0  0  0  0  0
    6.5483    0.6763   17.5009 N   0  0  0  0  0  0  0  0  0  0  0  0
    7.1101    0.0550   18.5419 C   0  0  0  0  0  0  0  0  0  0  0  0
    7.4986   -0.1038   22.1918 C   0  0  0  0  0  0  0  0  0  0  0  0
    7.2707    1.2765   22.7342 C   0  0  0  0  0  0  0  0  0  0  0  0
    8.5027    1.7328   23.5036 C   0  0  0  0  0  0  0  0  0  0  0  0
    9.6138    2.2204   22.7829 C   0  0  0  0  0  0  0  0  0  0  0  0
    9.5643    2.3877   21.2832 C   0  0  0  0  0  0  0  0  0  0  0  0
   10.8201    2.4593   23.4537 C   0  0  0  0  0  0  0  0  0  0  0  0
   10.9404    2.1620   24.8117 C   0  0  0  0  0  0  0  0  0  0  0  0
    9.8443    1.6494   25.5177 C   0  0  0  0  0  0  0  0  0  0  0  0
    8.6101    1.4490   24.8845 C   0  0  0  0  0  0  0  0  0  0  0  0
    7.4633    0.8198   25.6476 C   0  0  0  0  0  0  0  0  0  0  0  0
    8.0132   -1.0983   22.8911 N   0  0  0  0  0  0  0  0  0  0  0  0
  1  2  1  0
  2  3  1  0
  3  4  1  0
  4  5  1  0
  5  6  2  0
  6  7  1  0
  7  8  1  0
  8  9  2  0
  9 10  1  0
 10 11  2  0
 11 12  1  0
 12 13  2  0
  7 14  1  0
 14 15  1  0
 15 16  1  0
 16 17  2  0
 17 18  1  0
 17 19  1  0
 19 20  2  0
 20 21  1  0
 21 22  2  0
 22 23  1  0
 14 24  2  0
 24  5  1  0
 13  8  1  0
 22 16  1  0
M  END
>  <cnnaffinity>  (333) 
-6.14534

>  <filename>  (333) 
CCOCc1nc(Cc2c(C)cccc2C)n(-c2cccnc2)n1

>  <enamine_id>  (333) 
PV-006722718991

$$$$

     RDKit          3D

 25 28  0  0  0  0  0  0  0  0999 V2000
   13.1865    1.5795   24.4793 O   0  0  0  0  0  0  0  0  0  0  0  0
   12.5233    1.2755   23.5041 C   0  0  0  0  0  0  0  0  0  0  0  0
   12.7609    0.1673   22.5957 C   0  0  0  0  0  0  0  0  0  0  0  0
   11.8404   -0.1535   21.6445 C   0  0  0  0  0  0  0  0  0  0  0  0
   10.6391    0.6206   21.4843 C   0  0  0  0  0  0  0  0  0  0  0  0
    9.5378    0.1178   20.5848 C   0  0  0  0  0  0  0  0  0  0  0  0
    8.4911   -0.6953   21.2912 C   0  0  0  0  0  0  0  0  0  0  0  0
    8.6872   -1.4761   22.3359 N   0  0  0  0  0  0  0  0  0  0  0  0
    7.4746   -2.0417   22.5428 C   0  0  0  0  0  0  0  0  0  0  0  0
    7.3115   -3.0921   23.6188 C   0  0  1  0  0  0  0  0  0  0  0  0
    5.9296   -3.0586   24.3158 C   0  0  0  0  0  0  0  0  0  0  0  0
    4.8465   -3.7397   23.5071 C   0  0  0  0  0  0  0  0  0  0  0  0
    5.1009   -4.5240   22.4517 C   0  0  0  0  0  0  0  0  0  0  0  0
    6.5013   -4.8717   21.9902 C   0  0  0  0  0  0  0  0  0  0  0  0
    7.5689   -4.5111   23.0404 C   0  0  0  0  0  0  0  0  0  0  0  0
    6.5391   -1.6632   21.6872 N   0  0  0  0  0  0  0  0  0  0  0  0
    7.2006   -0.8189   20.8557 N   0  0  0  0  0  0  0  0  0  0  0  0
    6.5211   -0.1187   19.8157 C   0  0  0  0  0  0  0  0  0  0  0  0
    5.3408    0.5831   20.0814 C   0  0  0  0  0  0  0  0  0  0  0  0
    4.7689    1.3278   19.0460 C   0  0  0  0  0  0  0  0  0  0  0  0
    5.3825    1.3342   17.7884 C   0  0  0  0  0  0  0  0  0  0  0  0
    6.5002    0.6436   17.5186 N   0  0  0  0  0  0  0  0  0  0  0  0
    7.0493   -0.0639   18.5117 C   0  0  0  0  0  0  0  0  0  0  0  0
   10.4560    1.7195   22.2671 C   0  0  0  0  0  0  0  0  0  0  0  0
   11.3942    2.0426   23.2133 N   0  0  0  0  0  0  0  0  0  0  0  0
  1  2  2  0
  2  3  1  0
  3  4  2  0
  4  5  1  0
  5  6  1  0
  6  7  1  0
  7  8  2  0
  8  9  1  0
 10  9  1  6
 10 11  1  0
 11 12  1  0
 12 13  2  0
 13 14  1  0
 14 15  1  0
  9 16  2  0
 16 17  1  0
 17 18  1  0
 18 19  2  0
 19 20  1  0
 20 21  2  0
 21 22  1  0
 22 23  2  0
  5 24  2  0
 24 25  1  0
 25  2  1  0
 17  7  1  0
 23 18  1  0
 15 10  1  0
M  END
>  <cnnaffinity>  (334) 
-6.14517

>  <filename>  (334) 
O=c1ccc(Cc2nc(C3CC=CCC3)nn2-c2cccnc2)c[nH]1

>  <enamine_id>  (334) 
PV-007072344126

$$$$

     RDKit          3D

 28 31  0  0  0  0  0  0  0  0999 V2000
    5.6756    4.3943   25.4944 C   0  0  0  0  0  0  0  0  0  0  0  0
    6.5557    3.2700   25.2601 N   0  0  0  0  0  0  0  0  0  0  0  0
    6.1972    1.9712   25.1836 C   0  0  0  0  0  0  0  0  0  0  0  0
    7.3458    1.2579   24.9061 C   0  0  0  0  0  0  0  0  0  0  0  0
    7.4457   -0.1403   24.7376 N   0  0  0  0  0  0  0  0  0  0  0  0
    6.6303   -0.9770   25.4442 N   0  0  0  0  0  0  0  0  0  0  0  0
    6.9761   -2.1742   25.0176 C   0  0  0  0  0  0  0  0  0  0  0  0
    6.2408   -3.4105   25.4778 C   0  0  0  0  0  0  0  0  0  0  0  0
    7.1488   -4.6618   25.5939 C   0  0  0  0  0  0  0  0  0  0  0  0
    7.4985   -5.3182   24.2431 C   0  0  0  0  0  0  0  0  0  0  0  0
    6.2625   -5.5476   23.3911 C   0  0  0  0  0  0  0  0  0  0  0  0
    6.6264   -6.0470   22.1686 F   0  0  0  0  0  0  0  0  0  0  0  0
    5.4857   -6.5222   23.9737 F   0  0  0  0  0  0  0  0  0  0  0  0
    5.4114   -4.3001   23.2111 C   0  0  0  0  0  0  0  0  0  0  0  0
    5.0103   -3.6998   24.5693 C   0  0  0  0  0  0  0  0  0  0  0  0
    7.9619   -2.1797   24.0833 N   0  0  0  0  0  0  0  0  0  0  0  0
    8.2289   -0.8986   23.9110 C   0  0  0  0  0  0  0  0  0  0  0  0
    9.1253   -0.3457   22.8532 C   0  0  0  0  0  0  0  0  0  0  0  0
    8.3373    0.3150   21.7091 C   0  0  0  0  0  0  0  0  0  0  0  0
    7.4071   -0.6775   20.9953 C   0  0  0  0  0  0  0  0  0  0  0  0
    6.6403   -0.0125   19.8868 C   0  0  0  0  0  0  0  0  0  0  0  0
    5.4302    0.6454   20.1413 C   0  0  0  0  0  0  0  0  0  0  0  0
    4.7987    1.3144   19.0920 C   0  0  0  0  0  0  0  0  0  0  0  0
    5.3951    1.3017   17.8255 C   0  0  0  0  0  0  0  0  0  0  0  0
    6.5580    0.6887   17.5594 N   0  0  0  0  0  0  0  0  0  0  0  0
    7.1557    0.0614   18.5822 C   0  0  0  0  0  0  0  0  0  0  0  0
    8.3567    2.2458   24.8376 C   0  0  0  0  0  0  0  0  0  0  0  0
    7.8603    3.4570   25.0441 N   0  0  0  0  0  0  0  0  0  0  0  0
  1  2  1  0
  2  3  1  0
  3  4  2  0
  4  5  1  0
  5  6  1  0
  6  7  2  0
  7  8  1  0
  8  9  1  0
  9 10  1  0
 10 11  1  0
 11 12  1  0
 11 13  1  0
 11 14  1  0
 14 15  1  0
  7 16  1  0
 16 17  2  0
 17 18  1  0
 18 19  1  0
 19 20  1  0
 20 21  1  0
 21 22  2  0
 22 23  1  0
 23 24  2  0
 24 25  1  0
 25 26  2  0
  4 27  1  0
 27 28  2  0
 28  2  1  0
 17  5  1  0
 26 21  1  0
 15  8  1  0
M  END
>  <cnnaffinity>  (335) 
-6.14477

>  <filename>  (335) 
Cn1cc(-n2nc(C3CCC(F)(F)CC3)nc2CCCc2cccnc2)cn1

>  <enamine_id>  (335) 
PV-004437743216

$$$$

     RDKit          3D

 23 26  0  0  0  0  0  0  0  0999 V2000
    9.7424    2.1675   21.2424 C   0  0  0  0  0  0  0  0  0  0  0  0
    9.7950    2.1772   22.6831 N   0  0  0  0  0  0  0  0  0  0  0  0
   10.9274    2.5042   23.3232 N   0  0  0  0  0  0  0  0  0  0  0  0
   10.6755    2.2726   24.6029 C   0  0  0  0  0  0  0  0  0  0  0  0
    9.3664    1.7889   24.7937 C   0  0  0  0  0  0  0  0  0  0  0  0
    8.8277    1.7412   23.5242 C   0  0  0  0  0  0  0  0  0  0  0  0
    7.5000    1.2293   23.0233 C   0  0  0  0  0  0  0  0  0  0  0  0
    7.5938   -0.1195   22.3630 C   0  0  0  0  0  0  0  0  0  0  0  0
    8.0719   -1.1563   23.0234 N   0  0  0  0  0  0  0  0  0  0  0  0
    8.0885   -2.1548   22.1070 C   0  0  0  0  0  0  0  0  0  0  0  0
    8.6161   -3.5312   22.4333 C   0  0  0  0  0  0  0  0  0  0  0  0
    8.6205   -3.8890   23.9426 C   0  0  0  0  0  0  0  0  0  0  0  0
    8.5392   -5.4280   24.0337 C   0  0  0  0  0  0  0  0  0  0  0  0
    8.2501   -5.9372   22.6027 C   0  0  0  0  0  0  0  0  0  0  0  0
    7.8628   -4.7062   21.7675 C   0  0  0  0  0  0  0  0  0  0  0  0
    7.6567   -1.7999   20.9083 N   0  0  0  0  0  0  0  0  0  0  0  0
    7.2994   -0.4941   21.0749 N   0  0  0  0  0  0  0  0  0  0  0  0
    6.6221    0.1400   19.9875 C   0  0  0  0  0  0  0  0  0  0  0  0
    5.3991    0.8071   20.1558 C   0  0  0  0  0  0  0  0  0  0  0  0
    4.8109    1.4007   19.0315 C   0  0  0  0  0  0  0  0  0  0  0  0
    5.4606    1.3135   17.7984 C   0  0  0  0  0  0  0  0  0  0  0  0
    6.6056    0.6302   17.6210 N   0  0  0  0  0  0  0  0  0  0  0  0
    7.1500    0.0284   18.6842 C   0  0  0  0  0  0  0  0  0  0  0  0
  1  2  1  0
  2  3  1  0
  3  4  2  0
  4  5  1  0
  5  6  2  0
  6  7  1  0
  7  8  1  0
  8  9  2  0
  9 10  1  0
 10 11  1  0
 11 12  1  0
 12 13  1  0
 13 14  1  0
 14 15  1  0
 10 16  2  0
 16 17  1  0
 17 18  1  0
 18 19  2  0
 19 20  1  0
 20 21  2  0
 21 22  1  0
 22 23  2  0
  6  2  1  0
 17  8  1  0
 23 18  1  0
 15 11  1  0
M  END
>  <cnnaffinity>  (336) 
-6.14262

>  <filename>  (336) 
Cn1nccc1Cc1nc(C2CCCC2)nn1-c1cccnc1

>  <enamine_id>  (336) 
PV-006871270639

$$$$

     RDKit          3D

 24 27  0  0  0  0  0  0  0  0999 V2000
    4.8230    1.3977   18.9982 C   0  0  0  0  0  0  0  0  0  0  0  0
    5.4377    1.3049   17.7465 C   0  0  0  0  0  0  0  0  0  0  0  0
    6.5766    0.6211   17.5367 N   0  0  0  0  0  0  0  0  0  0  0  0
    7.1562    0.0348   18.5897 C   0  0  0  0  0  0  0  0  0  0  0  0
    6.6589    0.1479   19.9009 C   0  0  0  0  0  0  0  0  0  0  0  0
    7.3735   -0.4528   20.9765 N   0  0  0  0  0  0  0  0  0  0  0  0
    7.6609   -1.7756   20.9115 N   0  0  0  0  0  0  0  0  0  0  0  0
    8.2050   -2.0281   22.0916 C   0  0  0  0  0  0  0  0  0  0  0  0
    8.6966   -3.4097   22.4639 C   0  0  0  0  0  0  0  0  0  0  0  0
    8.7965   -3.7240   23.9766 C   0  0  0  0  0  0  0  0  0  0  0  0
    8.6815   -5.2657   24.1050 C   0  0  0  0  0  0  0  0  0  0  0  0
    8.2142   -5.8055   22.7342 C   0  0  0  0  0  0  0  0  0  0  0  0
    7.8547   -4.5761   21.8897 C   0  0  0  0  0  0  0  0  0  0  0  0
    8.3501   -0.9318   22.8840 N   0  0  0  0  0  0  0  0  0  0  0  0
    7.8182    0.0445   22.1677 C   0  0  0  0  0  0  0  0  0  0  0  0
    7.7651    1.4831   22.5802 C   0  0  0  0  0  0  0  0  0  0  0  0
    8.8671    2.3878   21.9956 C   0  0  0  0  0  0  0  0  0  0  0  0
   10.2470    2.0368   22.5553 C   0  0  0  0  0  0  0  0  0  0  0  0
   11.2645    2.9569   22.0743 N   0  0  0  0  0  0  0  0  0  0  0  0
   11.9294    2.8395   20.8767 C   0  0  0  0  0  0  0  0  0  0  0  0
   12.7142    3.9521   20.7765 C   0  0  0  0  0  0  0  0  0  0  0  0
   12.5556    4.7528   21.8775 N   0  0  0  0  0  0  0  0  0  0  0  0
   11.6698    4.1382   22.6198 C   0  0  0  0  0  0  0  0  0  0  0  0
    5.4421    0.8086   20.1055 C   0  0  0  0  0  0  0  0  0  0  0  0
  1  2  2  0
  2  3  1  0
  3  4  2  0
  4  5  1  0
  5  6  1  0
  6  7  1  0
  7  8  2  0
  8  9  1  0
  9 10  1  0
 10 11  1  0
 11 12  1  0
 12 13  1  0
  8 14  1  0
 14 15  2  0
 15 16  1  0
 16 17  1  0
 17 18  1  0
 18 19  1  0
 19 20  1  0
 20 21  2  0
 21 22  1  0
 22 23  2  0
  5 24  2  0
 24  1  1  0
 15  6  1  0
 23 19  1  0
 13  9  1  0
M  END
>  <cnnaffinity>  (337) 
-6.14243

>  <filename>  (337) 
c1cncc(-n2nc(C3CCCC3)nc2CCCn2ccnc2)c1

>  <enamine_id>  (337) 
PV-006728753949

$$$$

     RDKit          3D

 27 30  0  0  0  0  0  0  0  0999 V2000
    7.7003   -5.0031   25.9326 F   0  0  0  0  0  0  0  0  0  0  0  0
    6.3980   -4.6136   25.7109 C   0  0  0  0  0  0  0  0  0  0  0  0
    5.6254   -5.3316   26.5854 F   0  0  0  0  0  0  0  0  0  0  0  0
    6.0157   -4.9843   24.2864 C   0  0  0  0  0  0  0  0  0  0  0  0
    6.8804   -4.2497   23.2357 C   0  0  0  0  0  0  0  0  0  0  0  0
    7.4083   -2.8668   23.7283 C   0  0  0  0  0  0  0  0  0  0  0  0
    7.6728   -1.9463   22.5753 C   0  0  0  0  0  0  0  0  0  0  0  0
    6.7316   -1.5780   21.7213 N   0  0  0  0  0  0  0  0  0  0  0  0
    7.3716   -0.6782   20.9327 N   0  0  0  0  0  0  0  0  0  0  0  0
    6.6619   -0.0024   19.8980 C   0  0  0  0  0  0  0  0  0  0  0  0
    5.4460    0.6355   20.1640 C   0  0  0  0  0  0  0  0  0  0  0  0
    4.8138    1.3061   19.1118 C   0  0  0  0  0  0  0  0  0  0  0  0
    5.3998    1.2943   17.8401 C   0  0  0  0  0  0  0  0  0  0  0  0
    6.5560    0.6683   17.5771 N   0  0  0  0  0  0  0  0  0  0  0  0
    7.1681    0.0440   18.5882 C   0  0  0  0  0  0  0  0  0  0  0  0
    8.6472   -0.5203   21.3871 C   0  0  0  0  0  0  0  0  0  0  0  0
    9.5295    0.6123   20.9669 C   0  0  0  0  0  0  0  0  0  0  0  0
    9.0404    2.0119   21.4705 C   0  0  0  0  0  0  0  0  0  0  0  0
    8.8739    2.0814   22.9676 C   0  0  0  0  0  0  0  0  0  0  0  0
    9.9910    2.2429   23.6889 N   0  0  0  0  0  0  0  0  0  0  0  0
    9.8627    2.1665   25.0072 C   0  0  0  0  0  0  0  0  0  0  0  0
    8.6411    1.9708   25.6417 C   0  0  0  0  0  0  0  0  0  0  0  0
    7.5511    1.8265   24.7957 C   0  0  0  0  0  0  0  0  0  0  0  0
    7.6485    1.8983   23.4694 N   0  0  0  0  0  0  0  0  0  0  0  0
    8.8794   -1.3522   22.3877 N   0  0  0  0  0  0  0  0  0  0  0  0
    6.4543   -2.2189   24.7705 C   0  0  0  0  0  0  0  0  0  0  0  0
    6.2635   -3.1171   26.0150 C   0  0  0  0  0  0  0  0  0  0  0  0
  1  2  1  0
  2  3  1  0
  2  4  1  0
  4  5  1  0
  5  6  1  0
  6  7  1  0
  7  8  2  0
  8  9  1  0
  9 10  1  0
 10 11  2  0
 11 12  1  0
 12 13  2  0
 13 14  1  0
 14 15  2  0
  9 16  1  0
 16 17  1  0
 17 18  1  0
 18 19  1  0
 19 20  2  0
 20 21  1  0
 21 22  2  0
 22 23  1  0
 23 24  2  0
 16 25  2  0
  6 26  1  0
 26 27  1  0
 27  2  1  0
 25  7  1  0
 15 10  1  0
 24 19  1  0
M  END
>  <cnnaffinity>  (338) 
-6.14182

>  <filename>  (338) 
FC1(F)CCC(c2nc(CCc3ncccn3)n(-c3cccnc3)n2)CC1

>  <enamine_id>  (338) 
PV-006902056265

$$$$

     RDKit          3D

 27 30  0  0  0  0  0  0  0  0999 V2000
    8.3365    7.0304   25.3350 F   0  0  0  0  0  0  0  0  0  0  0  0
    8.2788    5.9602   24.5196 C   0  0  0  0  0  0  0  0  0  0  0  0
    7.8775    4.7315   25.0433 C   0  0  0  0  0  0  0  0  0  0  0  0
    7.8136    3.6243   24.1842 C   0  0  0  0  0  0  0  0  0  0  0  0
    8.1085    3.7400   22.8131 C   0  0  0  0  0  0  0  0  0  0  0  0
    8.1376    2.5056   21.9303 C   0  0  0  0  0  0  0  0  0  0  0  0
    9.5030    1.7924   21.9444 C   0  0  0  0  0  0  0  0  0  0  0  0
    9.5573    0.5760   20.9946 C   0  0  0  0  0  0  0  0  0  0  0  0
    8.6185   -0.5077   21.4039 C   0  0  0  0  0  0  0  0  0  0  0  0
    8.8422   -1.3490   22.3931 N   0  0  0  0  0  0  0  0  0  0  0  0
    7.6587   -2.0071   22.5201 C   0  0  0  0  0  0  0  0  0  0  0  0
    7.4253   -3.0235   23.6049 C   0  0  0  0  0  0  0  0  0  0  0  0
    7.3589   -2.3508   25.0103 C   0  0  0  0  0  0  0  0  0  0  0  0
    7.2543   -3.4135   26.1075 C   0  0  0  0  0  0  0  0  0  0  0  0
    8.3147   -4.3482   26.0293 O   0  0  0  0  0  0  0  0  0  0  0  0
    8.3279   -5.0628   24.8070 C   0  0  0  0  0  0  0  0  0  0  0  0
    8.5175   -4.1284   23.6092 C   0  0  0  0  0  0  0  0  0  0  0  0
    6.7245   -1.6352   21.6682 N   0  0  0  0  0  0  0  0  0  0  0  0
    7.3506   -0.6834   20.9252 N   0  0  0  0  0  0  0  0  0  0  0  0
    6.6551    0.0003   19.8911 C   0  0  0  0  0  0  0  0  0  0  0  0
    5.4407    0.6426   20.1544 C   0  0  0  0  0  0  0  0  0  0  0  0
    4.8071    1.3134   19.1023 C   0  0  0  0  0  0  0  0  0  0  0  0
    5.3934    1.2981   17.8321 C   0  0  0  0  0  0  0  0  0  0  0  0
    6.5469    0.6648   17.5667 N   0  0  0  0  0  0  0  0  0  0  0  0
    7.1597    0.0397   18.5804 C   0  0  0  0  0  0  0  0  0  0  0  0
    8.4385    5.0136   22.3137 C   0  0  0  0  0  0  0  0  0  0  0  0
    8.5804    6.1145   23.1694 C   0  0  0  0  0  0  0  0  0  0  0  0
  1  2  1  0
  2  3  2  0
  3  4  1  0
  4  5  2  0
  5  6  1  0
  6  7  1  0
  7  8  1  0
  8  9  1  0
  9 10  2  0
 10 11  1  0
 11 12  1  0
 12 13  1  0
 13 14  1  0
 14 15  1  0
 15 16  1  0
 16 17  1  0
 11 18  2  0
 18 19  1  0
 19 20  1  0
 20 21  2  0
 21 22  1  0
 22 23  2  0
 23 24  1  0
 24 25  2  0
  5 26  1  0
 26 27  2  0
 27  2  1  0
 19  9  1  0
 25 20  1  0
 17 12  1  0
M  END
>  <cnnaffinity>  (339) 
-6.14165

>  <filename>  (339) 
Fc1ccc(CCCc2nc(C3CCOCC3)nn2-c2cccnc2)cc1

>  <enamine_id>  (339) 
PV-007081284260

$$$$

     RDKit          3D

 24 26  0  0  0  0  0  0  0  0999 V2000
   10.4229    3.4450   23.8310 C   0  0  0  0  0  0  0  0  0  0  0  0
   10.8357    2.2763   22.9672 C   0  0  0  0  0  0  0  0  0  0  0  0
   12.1112    1.7152   23.1377 C   0  0  0  0  0  0  0  0  0  0  0  0
   12.5079    0.5733   22.4383 C   0  0  0  0  0  0  0  0  0  0  0  0
   11.6206   -0.0181   21.5320 C   0  0  0  0  0  0  0  0  0  0  0  0
   10.3660    0.5574   21.3124 C   0  0  0  0  0  0  0  0  0  0  0  0
    9.9548    1.6939   22.0272 C   0  0  0  0  0  0  0  0  0  0  0  0
    8.5248    2.1738   21.8582 C   0  0  0  0  0  0  0  0  0  0  0  0
    7.5310    1.3309   22.7034 C   0  0  0  0  0  0  0  0  0  0  0  0
    7.5070   -0.1197   22.3020 C   0  0  0  0  0  0  0  0  0  0  0  0
    7.9273   -1.1573   23.0092 N   0  0  0  0  0  0  0  0  0  0  0  0
    8.1267   -2.1164   22.0624 C   0  0  0  0  0  0  0  0  0  0  0  0
    8.7073   -3.4657   22.3462 C   0  0  0  0  0  0  0  0  0  0  0  0
    7.9200   -4.2893   23.3783 C   0  0  0  0  0  0  0  0  0  0  0  0
    8.7033   -5.5353   23.7977 C   0  0  0  0  0  0  0  0  0  0  0  0
    6.5457   -4.6446   22.8065 C   0  0  0  0  0  0  0  0  0  0  0  0
    7.8114   -1.7580   20.8364 N   0  0  0  0  0  0  0  0  0  0  0  0
    7.3432   -0.4946   20.9960 N   0  0  0  0  0  0  0  0  0  0  0  0
    6.6473    0.1201   19.9240 C   0  0  0  0  0  0  0  0  0  0  0  0
    5.4388    0.8027   20.1214 C   0  0  0  0  0  0  0  0  0  0  0  0
    4.8389    1.3964   19.0043 C   0  0  0  0  0  0  0  0  0  0  0  0
    5.4673    1.3016   17.7594 C   0  0  0  0  0  0  0  0  0  0  0  0
    6.6093    0.6183   17.5619 N   0  0  0  0  0  0  0  0  0  0  0  0
    7.1658    0.0205   18.6206 C   0  0  0  0  0  0  0  0  0  0  0  0
  1  2  1  0
  2  3  2  0
  3  4  1  0
  4  5  2  0
  5  6  1  0
  6  7  2  0
  7  8  1  0
  8  9  1  0
  9 10  1  0
 10 11  2  0
 11 12  1  0
 12 13  1  0
 13 14  1  0
 14 15  1  0
 14 16  1  0
 12 17  2  0
 17 18  1  0
 18 19  1  0
 19 20  2  0
 20 21  1  0
 21 22  2  0
 22 23  1  0
 23 24  2  0
  7  2  1  0
 18 10  1  0
 24 19  1  0
M  END
>  <cnnaffinity>  (340) 
-6.13773

>  <filename>  (340) 
Cc1ccccc1CCc1nc(CC(C)C)nn1-c1cccnc1

>  <enamine_id>  (340) 
PV-006716863293

$$$$

     RDKit          3D

 28 31  0  0  0  0  0  0  0  0999 V2000
    4.6989   -4.2110   25.4746 F   0  0  0  0  0  0  0  0  0  0  0  0
    4.7156   -3.1869   24.5479 C   0  0  0  0  0  0  0  0  0  0  0  0
    3.4306   -2.7196   24.4873 F   0  0  0  0  0  0  0  0  0  0  0  0
    5.6514   -2.1011   25.0744 C   0  0  0  0  0  0  0  0  0  0  0  0
    7.1244   -2.5377   25.0298 C   0  0  0  0  0  0  0  0  0  0  0  0
    7.5275   -3.0987   23.6370 C   0  0  0  0  0  0  0  0  0  0  0  0
    7.6412   -2.0218   22.5829 C   0  0  0  0  0  0  0  0  0  0  0  0
    6.7113   -1.6168   21.7282 N   0  0  0  0  0  0  0  0  0  0  0  0
    7.3522   -0.6794   20.9815 N   0  0  0  0  0  0  0  0  0  0  0  0
    6.6665   -0.0215   19.9201 C   0  0  0  0  0  0  0  0  0  0  0  0
    5.4577    0.6225   20.1836 C   0  0  0  0  0  0  0  0  0  0  0  0
    4.8342    1.3031   19.1315 C   0  0  0  0  0  0  0  0  0  0  0  0
    5.4232    1.3017   17.8618 C   0  0  0  0  0  0  0  0  0  0  0  0
    6.5591    0.6419   17.5894 N   0  0  0  0  0  0  0  0  0  0  0  0
    7.1549   -0.0086   18.5975 C   0  0  0  0  0  0  0  0  0  0  0  0
    8.6193   -0.5220   21.4654 C   0  0  0  0  0  0  0  0  0  0  0  0
    9.5579    0.5309   20.9976 C   0  0  0  0  0  0  0  0  0  0  0  0
    9.2545    1.9257   21.5522 C   0  0  0  0  0  0  0  0  0  0  0  0
    9.4860    1.9859   22.9505 O   0  0  0  0  0  0  0  0  0  0  0  0
    8.5038    1.7041   23.8517 C   0  0  0  0  0  0  0  0  0  0  0  0
    8.9449    1.5791   25.1778 C   0  0  0  0  0  0  0  0  0  0  0  0
    8.0034    1.3367   26.1732 C   0  0  0  0  0  0  0  0  0  0  0  0
    6.6526    1.2296   25.8270 C   0  0  0  0  0  0  0  0  0  0  0  0
    6.2081    1.3416   24.5684 N   0  0  0  0  0  0  0  0  0  0  0  0
    7.1224    1.5570   23.6004 C   0  0  0  0  0  0  0  0  0  0  0  0
    8.8352   -1.3842   22.4372 N   0  0  0  0  0  0  0  0  0  0  0  0
    6.5810   -4.2546   23.2372 C   0  0  0  0  0  0  0  0  0  0  0  0
    5.1126   -3.7906   23.2068 C   0  0  0  0  0  0  0  0  0  0  0  0
  1  2  1  0
  2  3  1  0
  2  4  1  0
  4  5  1  0
  5  6  1  0
  6  7  1  0
  7  8  2  0
  8  9  1  0
  9 10  1  0
 10 11  2  0
 11 12  1  0
 12 13  2  0
 13 14  1  0
 14 15  2  0
  9 16  1  0
 16 17  1  0
 17 18  1  0
 18 19  1  0
 19 20  1  0
 20 21  2  0
 21 22  1  0
 22 23  2  0
 23 24  1  0
 24 25  2  0
 16 26  2  0
  6 27  1  0
 27 28  1  0
 28  2  1  0
 26  7  1  0
 15 10  1  0
 25 20  1  0
M  END
>  <cnnaffinity>  (341) 
-6.13742

>  <filename>  (341) 
FC1(F)CCC(c2nc(CCOc3cccnc3)n(-c3cccnc3)n2)CC1

>  <enamine_id>  (341) 
PV-006800906280

$$$$

     RDKit          3D

 26 29  0  0  0  0  0  0  0  0999 V2000
    7.2167    6.1403   26.0616 F   0  0  0  0  0  0  0  0  0  0  0  0
    7.6376    5.1499   25.2608 C   0  0  0  0  0  0  0  0  0  0  0  0
    7.6939    5.3250   23.8892 C   0  0  0  0  0  0  0  0  0  0  0  0
    8.1360    4.2830   23.0573 C   0  0  0  0  0  0  0  0  0  0  0  0
    8.5242    3.0556   23.6104 C   0  0  0  0  0  0  0  0  0  0  0  0
    8.9734    1.9867   22.9020 O   0  0  0  0  0  0  0  0  0  0  0  0
    9.0396    2.0169   21.4781 C   0  0  0  0  0  0  0  0  0  0  0  0
    9.5121    0.6389   21.0041 C   0  0  0  0  0  0  0  0  0  0  0  0
    8.6266   -0.4656   21.4547 C   0  0  0  0  0  0  0  0  0  0  0  0
    8.8619   -1.3110   22.4400 N   0  0  0  0  0  0  0  0  0  0  0  0
    7.6819   -1.9644   22.5644 C   0  0  0  0  0  0  0  0  0  0  0  0
    7.4249   -2.9606   23.6474 C   0  0  0  0  0  0  0  0  0  0  0  0
    6.8091   -4.2987   23.1572 C   0  0  0  0  0  0  0  0  0  0  0  0
    5.3076   -4.0493   24.1640 S   0  0  0  0  0  0  0  0  0  0  0  0
    6.2731   -2.5687   24.6221 C   0  0  0  0  0  0  0  0  0  0  0  0
    6.7556   -1.6160   21.6949 N   0  0  0  0  0  0  0  0  0  0  0  0
    7.3713   -0.6609   20.9520 N   0  0  0  0  0  0  0  0  0  0  0  0
    6.6620    0.0077   19.9078 C   0  0  0  0  0  0  0  0  0  0  0  0
    5.4409    0.6394   20.1701 C   0  0  0  0  0  0  0  0  0  0  0  0
    4.8145    1.3075   19.1119 C   0  0  0  0  0  0  0  0  0  0  0  0
    5.4012    1.2956   17.8395 C   0  0  0  0  0  0  0  0  0  0  0  0
    6.5603    0.6720   17.5787 N   0  0  0  0  0  0  0  0  0  0  0  0
    7.1686    0.0511   18.5959 C   0  0  0  0  0  0  0  0  0  0  0  0
    8.4682    2.8763   25.0069 C   0  0  0  0  0  0  0  0  0  0  0  0
    8.0275    3.9192   25.8086 C   0  0  0  0  0  0  0  0  0  0  0  0
    7.9687    3.7548   27.1340 F   0  0  0  0  0  0  0  0  0  0  0  0
  1  2  1  0
  2  3  2  0
  3  4  1  0
  4  5  2  0
  5  6  1  0
  6  7  1  0
  7  8  1  0
  8  9  1  0
  9 10  2  0
 10 11  1  0
 11 12  1  0
 12 13  1  0
 13 14  1  0
 14 15  1  0
 11 16  2  0
 16 17  1  0
 17 18  1  0
 18 19  2  0
 19 20  1  0
 20 21  2  0
 21 22  1  0
 22 23  2  0
  5 24  1  0
 24 25  2  0
 25 26  1  0
 25  2  1  0
 17  9  1  0
 23 18  1  0
 15 12  1  0
M  END
>  <cnnaffinity>  (342) 
-6.13441

>  <filename>  (342) 
Fc1ccc(OCCc2nc(C3CSC3)nn2-c2cccnc2)cc1F

>  <enamine_id>  (342) 
PV-006938027660

$$$$

     RDKit          3D

 26 29  0  0  0  0  0  0  0  0999 V2000
    7.4125    5.8133   26.4902 F   0  0  0  0  0  0  0  0  0  0  0  0
    7.8062    4.8725   25.6180 C   0  0  0  0  0  0  0  0  0  0  0  0
    7.8056    5.1521   24.2606 C   0  0  0  0  0  0  0  0  0  0  0  0
    8.2187    4.1597   23.3572 C   0  0  0  0  0  0  0  0  0  0  0  0
    8.6279    2.8930   23.8003 C   0  0  0  0  0  0  0  0  0  0  0  0
    9.0460    1.8725   23.0059 O   0  0  0  0  0  0  0  0  0  0  0  0
    9.0514    1.9968   21.5854 C   0  0  0  0  0  0  0  0  0  0  0  0
    9.4961    0.6469   21.0165 C   0  0  0  0  0  0  0  0  0  0  0  0
    8.6073   -0.4656   21.4504 C   0  0  0  0  0  0  0  0  0  0  0  0
    8.8405   -1.2953   22.4408 N   0  0  0  0  0  0  0  0  0  0  0  0
    7.6644   -1.9616   22.5712 C   0  0  0  0  0  0  0  0  0  0  0  0
    7.4431   -2.9272   23.6833 C   0  0  0  0  0  0  0  0  0  0  0  0
    7.4939   -2.2770   25.1022 C   0  0  0  0  0  0  0  0  0  0  0  0
    8.8888   -3.3400   25.6050 S   0  0  0  0  0  0  0  0  0  0  0  0
    8.5980   -3.9409   23.9067 C   0  0  0  0  0  0  0  0  0  0  0  0
    6.7365   -1.6308   21.7000 N   0  0  0  0  0  0  0  0  0  0  0  0
    7.3520   -0.6715   20.9483 N   0  0  0  0  0  0  0  0  0  0  0  0
    6.6571    0.0069   19.9043 C   0  0  0  0  0  0  0  0  0  0  0  0
    5.4393    0.6454   20.1662 C   0  0  0  0  0  0  0  0  0  0  0  0
    4.8132    1.3111   19.1087 C   0  0  0  0  0  0  0  0  0  0  0  0
    5.4010    1.2960   17.8375 C   0  0  0  0  0  0  0  0  0  0  0  0
    6.5595    0.6711   17.5771 N   0  0  0  0  0  0  0  0  0  0  0  0
    7.1680    0.0499   18.5936 C   0  0  0  0  0  0  0  0  0  0  0  0
    8.6050    2.6636   25.1991 C   0  0  0  0  0  0  0  0  0  0  0  0
    8.9753    1.4625   25.6804 F   0  0  0  0  0  0  0  0  0  0  0  0
    8.2059    3.6319   26.1114 C   0  0  0  0  0  0  0  0  0  0  0  0
  1  2  1  0
  2  3  2  0
  3  4  1  0
  4  5  2  0
  5  6  1  0
  6  7  1  0
  7  8  1  0
  8  9  1  0
  9 10  2  0
 10 11  1  0
 11 12  1  0
 12 13  1  0
 13 14  1  0
 14 15  1  0
 11 16  2  0
 16 17  1  0
 17 18  1  0
 18 19  2  0
 19 20  1  0
 20 21  2  0
 21 22  1  0
 22 23  2  0
  5 24  1  0
 24 25  1  0
 24 26  2  0
 26  2  1  0
 17  9  1  0
 23 18  1  0
 15 12  1  0
M  END
>  <cnnaffinity>  (343) 
-6.13418

>  <filename>  (343) 
Fc1ccc(OCCc2nc(C3CSC3)nn2-c2cccnc2)c(F)c1

>  <enamine_id>  (343) 
PV-007055129081

$$$$

     RDKit          3D

 24 27  0  0  0  0  0  0  0  0999 V2000
    4.8004    1.3143   19.0971 C   0  0  0  0  0  0  0  0  0  0  0  0
    5.3990    1.2982   17.8303 C   0  0  0  0  0  0  0  0  0  0  0  0
    6.5609    0.6875   17.5643 N   0  0  0  0  0  0  0  0  0  0  0  0
    7.1605    0.0627   18.5858 C   0  0  0  0  0  0  0  0  0  0  0  0
    6.6427   -0.0095   19.8896 C   0  0  0  0  0  0  0  0  0  0  0  0
    7.4063   -0.6748   21.0009 C   0  0  0  0  0  0  0  0  0  0  0  0
    8.3230    0.3210   21.7238 C   0  0  0  0  0  0  0  0  0  0  0  0
    9.1124   -0.3364   22.8660 C   0  0  0  0  0  0  0  0  0  0  0  0
    8.2163   -0.8871   23.9318 C   0  0  0  0  0  0  0  0  0  0  0  0
    7.9306   -2.1575   24.1192 N   0  0  0  0  0  0  0  0  0  0  0  0
    6.9495   -2.1235   25.0643 C   0  0  0  0  0  0  0  0  0  0  0  0
    6.2967   -3.3814   25.5349 C   0  0  0  0  0  0  0  0  0  0  0  0
    7.2369   -4.5857   25.8447 C   0  0  0  0  0  0  0  0  0  0  0  0
    6.5620   -5.4045   24.7237 C   0  0  0  0  0  0  0  0  0  0  0  0
    5.6019   -4.2341   24.4268 C   0  0  0  0  0  0  0  0  0  0  0  0
    6.6063   -0.9124   25.4592 N   0  0  0  0  0  0  0  0  0  0  0  0
    7.4381   -0.1097   24.7442 N   0  0  0  0  0  0  0  0  0  0  0  0
    7.3859    1.3062   24.8744 C   0  0  0  0  0  0  0  0  0  0  0  0
    8.5442    2.0627   25.0897 C   0  0  0  0  0  0  0  0  0  0  0  0
    8.4139    3.4499   25.1850 C   0  0  0  0  0  0  0  0  0  0  0  0
    7.1478    4.0285   25.0621 C   0  0  0  0  0  0  0  0  0  0  0  0
    6.0322    3.3108   24.8652 N   0  0  0  0  0  0  0  0  0  0  0  0
    6.1544    1.9822   24.7839 C   0  0  0  0  0  0  0  0  0  0  0  0
    5.4343    0.6477   20.1479 C   0  0  0  0  0  0  0  0  0  0  0  0
  1  2  2  0
  2  3  1  0
  3  4  2  0
  4  5  1  0
  5  6  1  0
  6  7  1  0
  7  8  1  0
  8  9  1  0
  9 10  2  0
 10 11  1  0
 11 12  1  0
 12 13  1  0
 13 14  1  0
 14 15  1  0
 11 16  2  0
 16 17  1  0
 17 18  1  0
 18 19  2  0
 19 20  1  0
 20 21  2  0
 21 22  1  0
 22 23  2  0
  5 24  2  0
 24  1  1  0
 17  9  1  0
 23 18  1  0
 15 12  1  0
M  END
>  <cnnaffinity>  (344) 
-6.13207

>  <filename>  (344) 
c1cncc(CCCc2nc(C3CCC3)nn2-c2cccnc2)c1

>  <enamine_id>  (344) 
PV-007078667544

$$$$

     RDKit          3D

 27 30  0  0  0  0  0  0  0  0999 V2000
    5.5152   -3.2361   27.8063 Cl  0  0  0  0  0  0  0  0  0  0  0  0
    6.9622   -3.2197   26.8440 C   0  0  0  0  0  0  0  0  0  0  0  0
    7.7032   -4.3962   26.7062 C   0  0  0  0  0  0  0  0  0  0  0  0
    8.8027   -4.4010   25.8418 C   0  0  0  0  0  0  0  0  0  0  0  0
    9.1561   -3.2554   25.1244 C   0  0  0  0  0  0  0  0  0  0  0  0
    8.4232   -2.0762   25.3154 C   0  0  0  0  0  0  0  0  0  0  0  0
    8.7455   -0.8874   24.6084 N   0  0  0  0  0  0  0  0  0  0  0  0
    8.7670    0.3196   25.2421 N   0  0  0  0  0  0  0  0  0  0  0  0
    9.1240    1.1460   24.2879 C   0  0  0  0  0  0  0  0  0  0  0  0
    9.2501    2.6282   24.5220 C   0  0  0  0  0  0  0  0  0  0  0  0
    7.9990    3.3707   23.9476 C   0  0  0  0  0  0  0  0  0  0  0  0
    8.3165    4.8183   23.5664 C   0  0  0  0  0  0  0  0  0  0  0  0
    9.4087    4.9406   22.6592 O   0  0  0  0  0  0  0  0  0  0  0  0
   10.3055    3.8382   22.5566 C   0  0  0  0  0  0  0  0  0  0  0  0
   10.5680    3.1939   23.9145 C   0  0  0  0  0  0  0  0  0  0  0  0
    9.3012    0.5718   23.0704 N   0  0  0  0  0  0  0  0  0  0  0  0
    9.0043   -0.6918   23.2843 C   0  0  0  0  0  0  0  0  0  0  0  0
    8.9413   -1.7395   22.2249 C   0  0  0  0  0  0  0  0  0  0  0  0
    8.5381   -1.1877   20.8709 C   0  0  0  0  0  0  0  0  0  0  0  0
    7.2196   -0.6723   20.9730 O   0  0  0  0  0  0  0  0  0  0  0  0
    6.6759   -0.0391   19.9012 C   0  0  0  0  0  0  0  0  0  0  0  0
    5.4657    0.6185   20.1487 C   0  0  0  0  0  0  0  0  0  0  0  0
    4.8464    1.2834   19.0937 C   0  0  0  0  0  0  0  0  0  0  0  0
    5.4476    1.2784   17.8269 C   0  0  0  0  0  0  0  0  0  0  0  0
    6.6029    0.6486   17.5791 N   0  0  0  0  0  0  0  0  0  0  0  0
    7.2082    0.0087   18.5959 C   0  0  0  0  0  0  0  0  0  0  0  0
    7.3406   -2.0403   26.2061 C   0  0  0  0  0  0  0  0  0  0  0  0
  1  2  1  0
  2  3  2  0
  3  4  1  0
  4  5  2  0
  5  6  1  0
  6  7  1  0
  7  8  1  0
  8  9  2  0
  9 10  1  0
 10 11  1  0
 11 12  1  0
 12 13  1  0
 13 14  1  0
 14 15  1  0
  9 16  1  0
 16 17  2  0
 17 18  1  0
 18 19  1  0
 19 20  1  0
 20 21  1  0
 21 22  2  0
 22 23  1  0
 23 24  2  0
 24 25  1  0
 25 26  2  0
  6 27  2  0
 27  2  1  0
 17  7  1  0
 26 21  1  0
 15 10  1  0
M  END
>  <cnnaffinity>  (345) 
-6.13134

>  <filename>  (345) 
Clc1cccc(-n2nc(C3CCOCC3)nc2CCOc2cccnc2)c1

>  <enamine_id>  (345) 
PV-004759200474

$$$$

     RDKit          3D

 27 30  0  0  0  0  0  0  0  0999 V2000
    5.6757   -5.0945   27.0943 C   0  0  0  0  0  0  0  0  0  0  0  0
    6.4238   -4.2996   26.0177 C   0  0  2  0  0  0  0  0  0  0  0  0
    5.9561   -2.8395   25.9405 C   0  0  0  0  0  0  0  0  0  0  0  0
    6.7728   -1.9910   24.9372 C   0  0  0  0  0  0  0  0  0  0  0  0
    7.3559   -2.8086   23.7356 C   0  0  2  0  0  0  0  0  0  0  0  0
    7.6369   -1.9174   22.5493 C   0  0  0  0  0  0  0  0  0  0  0  0
    6.6980   -1.4999   21.7219 N   0  0  0  0  0  0  0  0  0  0  0  0
    7.3699   -0.6498   20.9004 N   0  0  0  0  0  0  0  0  0  0  0  0
    6.6787   -0.0025   19.8462 C   0  0  0  0  0  0  0  0  0  0  0  0
    5.4597    0.6246   20.1177 C   0  0  0  0  0  0  0  0  0  0  0  0
    4.8276    1.3111   19.0805 C   0  0  0  0  0  0  0  0  0  0  0  0
    5.4129    1.3187   17.8093 C   0  0  0  0  0  0  0  0  0  0  0  0
    6.5490    0.6623   17.5254 N   0  0  0  0  0  0  0  0  0  0  0  0
    7.1605    0.0114   18.5238 C   0  0  0  0  0  0  0  0  0  0  0  0
    8.6618   -0.5482   21.3240 C   0  0  0  0  0  0  0  0  0  0  0  0
    9.5591    0.5733   20.8820 C   0  0  0  0  0  0  0  0  0  0  0  0
    9.1378    1.9751   21.4295 C   0  0  0  0  0  0  0  0  0  0  0  0
    8.9169    2.0356   22.9301 C   0  0  0  0  0  0  0  0  0  0  0  0
    9.9557    2.2236   23.6995 N   0  0  0  0  0  0  0  0  0  0  0  0
    9.7388    2.2142   25.0490 N   0  0  0  0  0  0  0  0  0  0  0  0
    8.5446    2.0288   25.7371 C   0  0  0  0  0  0  0  0  0  0  0  0
    8.5206    2.0758   26.9538 O   0  0  0  0  0  0  0  0  0  0  0  0
    7.4181    1.7961   24.8443 C   0  0  0  0  0  0  0  0  0  0  0  0
    7.5973    1.8246   23.4940 C   0  0  0  0  0  0  0  0  0  0  0  0
    8.8709   -1.3837   22.3265 N   0  0  0  0  0  0  0  0  0  0  0  0
    6.4651   -4.0257   23.4099 C   0  0  0  0  0  0  0  0  0  0  0  0
    6.2912   -4.9721   24.6266 C   0  0  0  0  0  0  0  0  0  0  0  0
  2  1  1  1
  2  3  1  0
  3  4  1  0
  4  5  1  0
  5  6  1  6
  6  7  2  0
  7  8  1  0
  8  9  1  0
  9 10  2  0
 10 11  1  0
 11 12  2  0
 12 13  1  0
 13 14  2  0
  8 15  1  0
 15 16  1  0
 16 17  1  0
 17 18  1  0
 18 19  2  0
 19 20  1  0
 20 21  1  0
 21 22  2  0
 21 23  1  0
 23 24  2  0
 15 25  2  0
  5 26  1  0
 26 27  1  0
 27  2  1  0
 25  6  1  0
 14  9  1  0
 24 18  1  0
M  END
>  <cnnaffinity>  (346) 
-6.13101

>  <filename>  (346) 
CC1CCC(c2nc(CCc3ccc(=O)[nH]n3)n(-c3cccnc3)n2)CC1

>  <enamine_id>  (346) 
PV-006919001139

$$$$

     RDKit          3D

 24 27  0  0  0  0  0  0  0  0999 V2000
    6.0407    6.0030   23.7929 C   0  0  0  0  0  0  0  0  0  0  0  0
    7.3126    5.2610   23.5875 C   0  0  0  0  0  0  0  0  0  0  0  0
    8.6035    5.6455   23.6669 C   0  0  0  0  0  0  0  0  0  0  0  0
    9.4389    4.5643   23.4527 N   0  0  0  0  0  0  0  0  0  0  0  0
    8.6247    3.5820   23.2470 C   0  0  0  0  0  0  0  0  0  0  0  0
    8.9903    2.2004   22.8596 C   0  0  0  0  0  0  0  0  0  0  0  0
    9.0464    2.0122   21.3318 C   0  0  0  0  0  0  0  0  0  0  0  0
    9.5322    0.6095   20.9378 C   0  0  0  0  0  0  0  0  0  0  0  0
    8.6405   -0.4744   21.4255 C   0  0  0  0  0  0  0  0  0  0  0  0
    8.8775   -1.2919   22.4325 N   0  0  0  0  0  0  0  0  0  0  0  0
    7.7029   -1.9553   22.5634 C   0  0  0  0  0  0  0  0  0  0  0  0
    7.4613   -2.9639   23.6341 C   0  0  0  0  0  0  0  0  0  0  0  0
    6.7759   -4.2850   23.1750 C   0  0  0  0  0  0  0  0  0  0  0  0
    5.5584   -3.9551   24.0690 C   0  0  0  0  0  0  0  0  0  0  0  0
    6.2487   -2.6669   24.5708 C   0  0  0  0  0  0  0  0  0  0  0  0
    6.7678   -1.6107   21.6956 N   0  0  0  0  0  0  0  0  0  0  0  0
    7.3776   -0.6644   20.9406 N   0  0  0  0  0  0  0  0  0  0  0  0
    6.6629    0.0063   19.9055 C   0  0  0  0  0  0  0  0  0  0  0  0
    5.4420    0.6401   20.1705 C   0  0  0  0  0  0  0  0  0  0  0  0
    4.8143    1.3078   19.1115 C   0  0  0  0  0  0  0  0  0  0  0  0
    5.4013    1.2956   17.8385 C   0  0  0  0  0  0  0  0  0  0  0  0
    6.5610    0.6736   17.5762 N   0  0  0  0  0  0  0  0  0  0  0  0
    7.1693    0.0547   18.5947 C   0  0  0  0  0  0  0  0  0  0  0  0
    7.3127    3.9214   23.3098 O   0  0  0  0  0  0  0  0  0  0  0  0
  1  2  1  0
  2  3  2  0
  3  4  1  0
  4  5  2  0
  5  6  1  0
  6  7  1  0
  7  8  1  0
  8  9  1  0
  9 10  2  0
 10 11  1  0
 11 12  1  0
 12 13  1  0
 13 14  1  0
 14 15  1  0
 11 16  2  0
 16 17  1  0
 17 18  1  0
 18 19  2  0
 19 20  1  0
 20 21  2  0
 21 22  1  0
 22 23  2  0
  5 24  1  0
 24  2  1  0
 17  9  1  0
 23 18  1  0
 15 12  1  0
M  END
>  <cnnaffinity>  (347) 
-6.12955

>  <filename>  (347) 
Cc1cnc(CCCc2nc(C3CCC3)nn2-c2cccnc2)o1

>  <enamine_id>  (347) 
PV-007156751138

$$$$

     RDKit          3D

 23 26  0  0  0  0  0  0  0  0999 V2000
    4.8141    1.3089   19.1114 C   0  0  0  0  0  0  0  0  0  0  0  0
    5.3988    1.2951   17.8405 C   0  0  0  0  0  0  0  0  0  0  0  0
    6.5579    0.6721   17.5798 N   0  0  0  0  0  0  0  0  0  0  0  0
    7.1688    0.0493   18.5937 C   0  0  0  0  0  0  0  0  0  0  0  0
    6.6621    0.0036   19.9028 C   0  0  0  0  0  0  0  0  0  0  0  0
    7.3748   -0.6680   20.9350 N   0  0  0  0  0  0  0  0  0  0  0  0
    6.7430   -1.5732   21.7244 N   0  0  0  0  0  0  0  0  0  0  0  0
    7.6798   -1.9301   22.5855 C   0  0  0  0  0  0  0  0  0  0  0  0
    7.4089   -2.8239   23.7492 C   0  0  0  0  0  0  0  0  0  0  0  0
    6.4247   -2.2343   24.8174 C   0  0  0  0  0  0  0  0  0  0  0  0
    5.4299   -3.3791   24.5115 C   0  0  0  0  0  0  0  0  0  0  0  0
    6.4156   -3.9935   23.4882 C   0  0  0  0  0  0  0  0  0  0  0  0
    8.8818   -1.3273   22.4040 N   0  0  0  0  0  0  0  0  0  0  0  0
    8.6510   -0.5115   21.3922 C   0  0  0  0  0  0  0  0  0  0  0  0
    9.5313    0.6119   20.9509 C   0  0  0  0  0  0  0  0  0  0  0  0
    9.0532    2.0111   21.4448 C   0  0  0  0  0  0  0  0  0  0  0  0
    8.9307    2.0805   22.9455 C   0  0  0  0  0  0  0  0  0  0  0  0
    7.7187    1.8147   23.5799 C   0  0  0  0  0  0  0  0  0  0  0  0
    7.7328    1.7973   24.9665 C   0  0  0  0  0  0  0  0  0  0  0  0
    8.8426    2.0129   25.6713 N   0  0  0  0  0  0  0  0  0  0  0  0
    9.9501    2.2159   24.9625 C   0  0  0  0  0  0  0  0  0  0  0  0
   10.0505    2.2831   23.6384 N   0  0  0  0  0  0  0  0  0  0  0  0
    5.4441    0.6410   20.1663 C   0  0  0  0  0  0  0  0  0  0  0  0
  1  2  2  0
  2  3  1  0
  3  4  2  0
  4  5  1  0
  5  6  1  0
  6  7  1  0
  7  8  2  0
  8  9  1  0
  9 10  1  0
 10 11  1  0
 11 12  1  0
  8 13  1  0
 13 14  2  0
 14 15  1  0
 15 16  1  0
 16 17  1  0
 17 18  2  0
 18 19  1  0
 19 20  2  0
 20 21  1  0
 21 22  2  0
  5 23  2  0
 23  1  1  0
 14  6  1  0
 22 17  1  0
 12  9  1  0
M  END
>  <cnnaffinity>  (348) 
-6.12851

>  <filename>  (348) 
c1cncc(-n2nc(C3CCC3)nc2CCc2ccncn2)c1

>  <enamine_id>  (348) 
PV-006842643690

$$$$

     RDKit          3D

 24 27  0  0  0  0  0  0  0  0999 V2000
   12.9956    2.2711   23.7250 C   0  0  0  0  0  0  0  0  0  0  0  0
   12.3189    3.4738   23.4980 C   0  0  0  0  0  0  0  0  0  0  0  0
   10.9241    3.4776   23.4234 C   0  0  0  0  0  0  0  0  0  0  0  0
   10.2120    2.2792   23.5651 C   0  0  0  0  0  0  0  0  0  0  0  0
    8.5108    2.2315   23.0294 S   0  0  0  0  0  0  0  0  0  0  0  0
    8.8939    1.9828   21.2510 C   0  0  0  0  0  0  0  0  0  0  0  0
    9.4835    0.5953   20.9159 C   0  0  0  0  0  0  0  0  0  0  0  0
    8.6279   -0.5323   21.3984 C   0  0  0  0  0  0  0  0  0  0  0  0
    8.8499   -1.3889   22.3816 N   0  0  0  0  0  0  0  0  0  0  0  0
    7.6460   -1.9998   22.5363 C   0  0  0  0  0  0  0  0  0  0  0  0
    7.4150   -3.0060   23.6113 C   0  0  0  0  0  0  0  0  0  0  0  0
    6.8106   -4.3499   23.1230 C   0  0  0  0  0  0  0  0  0  0  0  0
    5.3105   -4.1305   24.1400 S   0  0  0  0  0  0  0  0  0  0  0  0
    6.2713   -2.6474   24.6036 C   0  0  0  0  0  0  0  0  0  0  0  0
    6.7107   -1.6041   21.7000 N   0  0  0  0  0  0  0  0  0  0  0  0
    7.3562   -0.6845   20.9372 N   0  0  0  0  0  0  0  0  0  0  0  0
    6.6697   -0.0227   19.8882 C   0  0  0  0  0  0  0  0  0  0  0  0
    5.4571    0.6152   20.1555 C   0  0  0  0  0  0  0  0  0  0  0  0
    4.8327    1.3006   19.1101 C   0  0  0  0  0  0  0  0  0  0  0  0
    5.4247    1.3068   17.8405 C   0  0  0  0  0  0  0  0  0  0  0  0
    6.5704    0.6636   17.5725 N   0  0  0  0  0  0  0  0  0  0  0  0
    7.1695    0.0136   18.5763 C   0  0  0  0  0  0  0  0  0  0  0  0
   10.8889    1.0908   23.8739 C   0  0  0  0  0  0  0  0  0  0  0  0
   12.2842    1.0917   23.9586 C   0  0  0  0  0  0  0  0  0  0  0  0
  1  2  2  0
  2  3  1  0
  3  4  2  0
  4  5  1  0
  5  6  1  0
  6  7  1  0
  7  8  1  0
  8  9  2  0
  9 10  1  0
 10 11  1  0
 11 12  1  0
 12 13  1  0
 13 14  1  0
 10 15  2  0
 15 16  1  0
 16 17  1  0
 17 18  2  0
 18 19  1  0
 19 20  2  0
 20 21  1  0
 21 22  2  0
  4 23  1  0
 23 24  2  0
 24  1  1  0
 16  8  1  0
 22 17  1  0
 14 11  1  0
M  END
>  <cnnaffinity>  (349) 
-6.12804

>  <filename>  (349) 
c1ccc(SCCc2nc(C3CSC3)nn2-c2cccnc2)cc1

>  <enamine_id>  (349) 
PV-007161485969

$$$$

     RDKit          3D

 23 26  0  0  0  0  0  0  0  0999 V2000
    7.2679    5.4441   25.2605 C   0  0  0  0  0  0  0  0  0  0  0  0
    8.0956    5.2749   24.1595 C   0  0  0  0  0  0  0  0  0  0  0  0
    8.4732    4.0779   23.7230 N   0  0  0  0  0  0  0  0  0  0  0  0
    8.0008    3.0185   24.3864 C   0  0  0  0  0  0  0  0  0  0  0  0
    8.2857    1.6674   23.8068 C   0  0  0  0  0  0  0  0  0  0  0  0
    7.1733    1.2273   22.8038 C   0  0  0  0  0  0  0  0  0  0  0  0
    7.3909   -0.1453   22.2550 C   0  0  0  0  0  0  0  0  0  0  0  0
    7.9095   -1.1142   22.9806 N   0  0  0  0  0  0  0  0  0  0  0  0
    8.1674   -2.0830   22.0733 C   0  0  0  0  0  0  0  0  0  0  0  0
    8.9720   -3.2815   22.4259 C   0  0  0  0  0  0  0  0  0  0  0  0
   10.3254   -2.9742   23.1652 C   0  0  0  0  0  0  0  0  0  0  0  0
    9.9408   -3.9794   24.2762 C   0  0  0  0  0  0  0  0  0  0  0  0
    8.5458   -4.1860   23.6295 C   0  0  0  0  0  0  0  0  0  0  0  0
    7.7851   -1.8066   20.8397 N   0  0  0  0  0  0  0  0  0  0  0  0
    7.2330   -0.5702   20.9637 N   0  0  0  0  0  0  0  0  0  0  0  0
    6.5724    0.0524   19.8726 C   0  0  0  0  0  0  0  0  0  0  0  0
    5.3652    0.7295   20.0685 C   0  0  0  0  0  0  0  0  0  0  0  0
    4.7839    1.3704   18.9746 C   0  0  0  0  0  0  0  0  0  0  0  0
    5.4303    1.3132   17.7345 C   0  0  0  0  0  0  0  0  0  0  0  0
    6.5682    0.6260   17.5305 N   0  0  0  0  0  0  0  0  0  0  0  0
    7.1152   -0.0080   18.5731 C   0  0  0  0  0  0  0  0  0  0  0  0
    7.2098    3.0686   25.4640 N   0  0  0  0  0  0  0  0  0  0  0  0
    6.8540    4.2779   25.8851 C   0  0  0  0  0  0  0  0  0  0  0  0
  1  2  2  0
  2  3  1  0
  3  4  2  0
  4  5  1  0
  5  6  1  0
  6  7  1  0
  7  8  2  0
  8  9  1  0
  9 10  1  0
 10 11  1  0
 11 12  1  0
 12 13  1  0
  9 14  2  0
 14 15  1  0
 15 16  1  0
 16 17  2  0
 17 18  1  0
 18 19  2  0
 19 20  1  0
 20 21  2  0
  4 22  1  0
 22 23  2  0
 23  1  1  0
 15  7  1  0
 21 16  1  0
 13 10  1  0
M  END
>  <cnnaffinity>  (350) 
-6.12768

>  <filename>  (350) 
c1cnc(CCc2nc(C3CCC3)nn2-c2cccnc2)nc1

>  <enamine_id>  (350) 
PV-006780023517

$$$$

     RDKit          3D

 25 28  0  0  0  0  0  0  0  0999 V2000
    7.3881    5.9665   26.6191 C   0  0  0  0  0  0  0  0  0  0  0  0
    7.8092    4.8895   25.6417 C   0  0  0  0  0  0  0  0  0  0  0  0
    7.8258    5.1298   24.2641 C   0  0  0  0  0  0  0  0  0  0  0  0
    8.2342    4.1517   23.3455 C   0  0  0  0  0  0  0  0  0  0  0  0
    8.6392    2.8914   23.8046 C   0  0  0  0  0  0  0  0  0  0  0  0
    9.0589    1.8673   23.0076 O   0  0  0  0  0  0  0  0  0  0  0  0
    9.0594    1.9904   21.5887 C   0  0  0  0  0  0  0  0  0  0  0  0
    9.5001    0.6435   21.0135 C   0  0  0  0  0  0  0  0  0  0  0  0
    8.6072   -0.4659   21.4425 C   0  0  0  0  0  0  0  0  0  0  0  0
    8.8331   -1.2965   22.4320 N   0  0  0  0  0  0  0  0  0  0  0  0
    7.6505   -1.9611   22.5572 C   0  0  0  0  0  0  0  0  0  0  0  0
    7.4203   -2.9285   23.6640 C   0  0  0  0  0  0  0  0  0  0  0  0
    7.5490   -2.3330   25.1048 C   0  0  0  0  0  0  0  0  0  0  0  0
    8.7328   -3.2859   25.3873 C   0  0  0  0  0  0  0  0  0  0  0  0
    8.5956   -3.9030   23.9757 C   0  0  0  0  0  0  0  0  0  0  0  0
    6.7283   -1.6198   21.6821 N   0  0  0  0  0  0  0  0  0  0  0  0
    7.3520   -0.6645   20.9393 N   0  0  0  0  0  0  0  0  0  0  0  0
    6.6583    0.0132   19.8997 C   0  0  0  0  0  0  0  0  0  0  0  0
    5.4391    0.6472   20.1641 C   0  0  0  0  0  0  0  0  0  0  0  0
    4.8117    1.3121   19.1078 C   0  0  0  0  0  0  0  0  0  0  0  0
    5.4007    1.2965   17.8368 C   0  0  0  0  0  0  0  0  0  0  0  0
    6.5591    0.6725   17.5747 N   0  0  0  0  0  0  0  0  0  0  0  0
    7.1690    0.0526   18.5906 C   0  0  0  0  0  0  0  0  0  0  0  0
    8.6331    2.6334   25.1894 C   0  0  0  0  0  0  0  0  0  0  0  0
    8.2239    3.6230   26.0848 C   0  0  0  0  0  0  0  0  0  0  0  0
  1  2  1  0
  2  3  2  0
  3  4  1  0
  4  5  2  0
  5  6  1  0
  6  7  1  0
  7  8  1  0
  8  9  1  0
  9 10  2  0
 10 11  1  0
 11 12  1  0
 12 13  1  0
 13 14  1  0
 14 15  1  0
 11 16  2  0
 16 17  1  0
 17 18  1  0
 18 19  2  0
 19 20  1  0
 20 21  2  0
 21 22  1  0
 22 23  2  0
  5 24  1  0
 24 25  2  0
 25  2  1  0
 17  9  1  0
 23 18  1  0
 15 12  1  0
M  END
>  <cnnaffinity>  (351) 
-6.12656

>  <filename>  (351) 
Cc1ccc(OCCc2nc(C3CCC3)nn2-c2cccnc2)cc1

>  <enamine_id>  (351) 
PV-006963600413

$$$$

     RDKit          3D

 22 24  0  0  0  0  0  0  0  0999 V2000
    7.7128   -4.4782   23.0147 C   0  0  0  0  0  0  0  0  0  0  0  0
    7.4168   -3.0688   23.5677 C   0  0  0  0  0  0  0  0  0  0  0  0
    7.6145   -2.0048   22.5512 C   0  0  0  0  0  0  0  0  0  0  0  0
    6.6684   -1.5873   21.7373 N   0  0  0  0  0  0  0  0  0  0  0  0
    7.3142   -0.6814   20.9612 N   0  0  0  0  0  0  0  0  0  0  0  0
    6.6384   -0.0136   19.9005 C   0  0  0  0  0  0  0  0  0  0  0  0
    5.4257    0.6330   20.1567 C   0  0  0  0  0  0  0  0  0  0  0  0
    4.8045    1.3094   19.1027 C   0  0  0  0  0  0  0  0  0  0  0  0
    5.3959    1.2952   17.8334 C   0  0  0  0  0  0  0  0  0  0  0  0
    6.5443    0.6539   17.5722 N   0  0  0  0  0  0  0  0  0  0  0  0
    7.1492    0.0255   18.5874 C   0  0  0  0  0  0  0  0  0  0  0  0
    8.6024   -0.5731   21.3952 C   0  0  0  0  0  0  0  0  0  0  0  0
    9.6303    0.2803   20.7458 C   0  0  0  0  0  0  0  0  0  0  0  0
   10.5497    0.9403   21.7439 C   0  0  0  0  0  0  0  0  0  0  0  0
   11.7698    0.3135   22.0887 C   0  0  0  0  0  0  0  0  0  0  0  0
   12.1794   -1.0249   21.5083 C   0  0  0  0  0  0  0  0  0  0  0  0
   12.5716    0.9029   23.0714 C   0  0  0  0  0  0  0  0  0  0  0  0
   12.1291    2.0322   23.7532 C   0  0  0  0  0  0  0  0  0  0  0  0
   10.8984    2.6149   23.4473 C   0  0  0  0  0  0  0  0  0  0  0  0
   10.0892    2.0794   22.4403 C   0  0  0  0  0  0  0  0  0  0  0  0
    8.7386    2.7120   22.1668 C   0  0  0  0  0  0  0  0  0  0  0  0
    8.8276   -1.4279   22.3707 N   0  0  0  0  0  0  0  0  0  0  0  0
  1  2  1  0
  2  3  1  0
  3  4  2  0
  4  5  1  0
  5  6  1  0
  6  7  2  0
  7  8  1  0
  8  9  2  0
  9 10  1  0
 10 11  2  0
  5 12  1  0
 12 13  1  0
 13 14  1  0
 14 15  2  0
 15 16  1  0
 15 17  1  0
 17 18  2  0
 18 19  1  0
 19 20  2  0
 20 21  1  0
 12 22  2  0
 22  3  1  0
 11  6  1  0
 20 14  1  0
M  END
>  <cnnaffinity>  (352) 
-6.12463

>  <filename>  (352) 
CCc1nc(Cc2c(C)cccc2C)n(-c2cccnc2)n1

>  <enamine_id>  (352) 
PV-006926840768

$$$$

     RDKit          3D

 23 26  0  0  0  0  0  0  0  0999 V2000
   13.5825    0.5384   23.6243 C   0  0  0  0  0  0  0  0  0  0  0  0
   12.3112    0.8590   22.9383 C   0  0  0  0  0  0  0  0  0  0  0  0
   11.5279    1.8485   23.3198 N   0  0  0  0  0  0  0  0  0  0  0  0
   10.4897    1.7168   22.4629 N   0  0  0  0  0  0  0  0  0  0  0  0
   10.6793    0.6719   21.6447 C   0  0  0  0  0  0  0  0  0  0  0  0
    9.6532    0.2059   20.6755 C   0  0  0  0  0  0  0  0  0  0  0  0
    8.6226   -0.6385   21.3236 C   0  0  0  0  0  0  0  0  0  0  0  0
    8.8428   -1.4760   22.3067 N   0  0  0  0  0  0  0  0  0  0  0  0
    7.6109   -1.9991   22.5445 C   0  0  0  0  0  0  0  0  0  0  0  0
    7.3864   -2.9829   23.6457 C   0  0  0  0  0  0  0  0  0  0  0  0
    8.2309   -4.2683   23.5146 C   0  0  0  0  0  0  0  0  0  0  0  0
    8.3306   -4.8418   24.9400 C   0  0  0  0  0  0  0  0  0  0  0  0
    8.0258   -3.6761   25.9144 C   0  0  0  0  0  0  0  0  0  0  0  0
    7.7360   -2.4360   25.0482 C   0  0  0  0  0  0  0  0  0  0  0  0
    6.6597   -1.5545   21.7518 N   0  0  0  0  0  0  0  0  0  0  0  0
    7.3201   -0.6947   20.9306 N   0  0  0  0  0  0  0  0  0  0  0  0
    6.6463    0.0032   19.8974 C   0  0  0  0  0  0  0  0  0  0  0  0
    5.4344    0.6477   20.1644 C   0  0  0  0  0  0  0  0  0  0  0  0
    4.8115    1.3131   19.1083 C   0  0  0  0  0  0  0  0  0  0  0  0
    5.4006    1.2957   17.8369 C   0  0  0  0  0  0  0  0  0  0  0  0
    6.5594    0.6728   17.5762 N   0  0  0  0  0  0  0  0  0  0  0  0
    7.1664    0.0516   18.5916 C   0  0  0  0  0  0  0  0  0  0  0  0
   11.8354    0.1114   21.9013 N   0  0  0  0  0  0  0  0  0  0  0  0
  1  2  1  0
  2  3  2  0
  3  4  1  0
  4  5  1  0
  5  6  1  0
  6  7  1  0
  7  8  2  0
  8  9  1  0
  9 10  1  0
 10 11  1  0
 11 12  1  0
 12 13  1  0
 13 14  1  0
  9 15  2  0
 15 16  1  0
 16 17  1  0
 17 18  2  0
 18 19  1  0
 19 20  2  0
 20 21  1  0
 21 22  2  0
  5 23  2  0
 23  2  1  0
 16  7  1  0
 22 17  1  0
 14 10  1  0
M  END
>  <cnnaffinity>  (353) 
-6.12439

>  <filename>  (353) 
Cc1n[nH]c(Cc2nc(C3CCCC3)nn2-c2cccnc2)n1

>  <enamine_id>  (353) 
PV-006896223342

$$$$

     RDKit          3D

 26 29  0  0  0  0  0  0  0  0999 V2000
    7.4277    6.3183   23.8137 F   0  0  0  0  0  0  0  0  0  0  0  0
    7.8150    5.1197   24.2724 C   0  0  0  0  0  0  0  0  0  0  0  0
    7.7973    4.8927   25.6399 C   0  0  0  0  0  0  0  0  0  0  0  0
    8.2050    3.6350   26.1013 C   0  0  0  0  0  0  0  0  0  0  0  0
    8.6075    2.6566   25.2005 C   0  0  0  0  0  0  0  0  0  0  0  0
    8.9802    1.4536   25.6796 F   0  0  0  0  0  0  0  0  0  0  0  0
    8.6261    2.8956   23.8020 C   0  0  0  0  0  0  0  0  0  0  0  0
    9.0425    1.8813   23.0067 O   0  0  0  0  0  0  0  0  0  0  0  0
    9.0493    2.0024   21.5864 C   0  0  0  0  0  0  0  0  0  0  0  0
    9.4947    0.6507   21.0198 C   0  0  0  0  0  0  0  0  0  0  0  0
    8.6068   -0.4640   21.4516 C   0  0  0  0  0  0  0  0  0  0  0  0
    8.8403   -1.2946   22.4408 N   0  0  0  0  0  0  0  0  0  0  0  0
    7.6643   -1.9611   22.5713 C   0  0  0  0  0  0  0  0  0  0  0  0
    7.4433   -2.9270   23.6836 C   0  0  0  0  0  0  0  0  0  0  0  0
    7.4940   -2.2774   25.1024 C   0  0  0  0  0  0  0  0  0  0  0  0
    8.8890   -3.3400   25.6054 S   0  0  0  0  0  0  0  0  0  0  0  0
    8.5978   -3.9407   23.9072 C   0  0  0  0  0  0  0  0  0  0  0  0
    6.7366   -1.6308   21.7001 N   0  0  0  0  0  0  0  0  0  0  0  0
    7.3521   -0.6715   20.9478 N   0  0  0  0  0  0  0  0  0  0  0  0
    6.6572    0.0069   19.9041 C   0  0  0  0  0  0  0  0  0  0  0  0
    5.4392    0.6455   20.1663 C   0  0  0  0  0  0  0  0  0  0  0  0
    4.8132    1.3110   19.1089 C   0  0  0  0  0  0  0  0  0  0  0  0
    5.4012    1.2960   17.8376 C   0  0  0  0  0  0  0  0  0  0  0  0
    6.5598    0.6713   17.5771 N   0  0  0  0  0  0  0  0  0  0  0  0
    7.1682    0.0502   18.5934 C   0  0  0  0  0  0  0  0  0  0  0  0
    8.2194    4.1569   23.3442 C   0  0  0  0  0  0  0  0  0  0  0  0
  1  2  1  0
  2  3  2  0
  3  4  1  0
  4  5  2  0
  5  6  1  0
  5  7  1  0
  7  8  1  0
  8  9  1  0
  9 10  1  0
 10 11  1  0
 11 12  2  0
 12 13  1  0
 13 14  1  0
 14 15  1  0
 15 16  1  0
 16 17  1  0
 13 18  2  0
 18 19  1  0
 19 20  1  0
 20 21  2  0
 21 22  1  0
 22 23  2  0
 23 24  1  0
 24 25  2  0
  7 26  2  0
 26  2  1  0
 19 11  1  0
 25 20  1  0
 17 14  1  0
M  END
>  <cnnaffinity>  (354) 
-6.12421

>  <filename>  (354) 
Fc1ccc(F)c(OCCc2nc(C3CSC3)nn2-c2cccnc2)c1

>  <enamine_id>  (354) 
PV-006751913149

$$$$

     RDKit          3D

 27 30  0  0  0  0  0  0  0  0999 V2000
    7.4590    3.5941   23.8183 F   0  0  0  0  0  0  0  0  0  0  0  0
    8.7118    3.1664   23.6114 C   0  0  0  0  0  0  0  0  0  0  0  0
    9.7262    3.6363   24.4367 C   0  0  0  0  0  0  0  0  0  0  0  0
   11.0188    3.1255   24.2411 C   0  0  0  0  0  0  0  0  0  0  0  0
   11.2410    2.1446   23.2916 C   0  0  0  0  0  0  0  0  0  0  0  0
   12.4579    1.5813   23.2131 F   0  0  0  0  0  0  0  0  0  0  0  0
   10.2139    1.7086   22.4284 C   0  0  0  0  0  0  0  0  0  0  0  0
   10.5693    0.7777   21.5001 O   0  0  0  0  0  0  0  0  0  0  0  0
    9.6084    0.1721   20.6542 C   0  0  0  0  0  0  0  0  0  0  0  0
    8.5596   -0.6412   21.3510 C   0  0  0  0  0  0  0  0  0  0  0  0
    8.7584   -1.4321   22.3837 N   0  0  0  0  0  0  0  0  0  0  0  0
    7.5482   -2.0092   22.5745 C   0  0  0  0  0  0  0  0  0  0  0  0
    7.3374   -3.0026   23.6960 C   0  0  0  0  0  0  0  0  0  0  0  0
    6.2489   -2.5220   24.7117 C   0  0  0  0  0  0  0  0  0  0  0  0
    4.9305   -3.2257   24.4001 C   0  0  0  0  0  0  0  0  0  0  0  0
    5.0350   -4.6212   24.6567 O   0  0  0  0  0  0  0  0  0  0  0  0
    6.2281   -5.2650   24.2038 C   0  0  0  0  0  0  0  0  0  0  0  0
    7.0064   -4.4412   23.1684 C   0  0  0  0  0  0  0  0  0  0  0  0
    6.6127   -1.6259   21.7203 N   0  0  0  0  0  0  0  0  0  0  0  0
    7.2765   -0.7583   20.9090 N   0  0  0  0  0  0  0  0  0  0  0  0
    6.5963   -0.0715   19.8629 C   0  0  0  0  0  0  0  0  0  0  0  0
    5.3970    0.5981   20.1250 C   0  0  0  0  0  0  0  0  0  0  0  0
    4.7940    1.3062   19.0831 C   0  0  0  0  0  0  0  0  0  0  0  0
    5.3926    1.3076   17.8169 C   0  0  0  0  0  0  0  0  0  0  0  0
    6.5208    0.6338   17.5463 N   0  0  0  0  0  0  0  0  0  0  0  0
    7.1025   -0.0351   18.5479 C   0  0  0  0  0  0  0  0  0  0  0  0
    8.9314    2.2423   22.5871 C   0  0  0  0  0  0  0  0  0  0  0  0
  1  2  1  0
  2  3  2  0
  3  4  1  0
  4  5  2  0
  5  6  1  0
  5  7  1  0
  7  8  1  0
  8  9  1  0
  9 10  1  0
 10 11  2  0
 11 12  1  0
 12 13  1  0
 13 14  1  0
 14 15  1  0
 15 16  1  0
 16 17  1  0
 17 18  1  0
 12 19  2  0
 19 20  1  0
 20 21  1  0
 21 22  2  0
 22 23  1  0
 23 24  2  0
 24 25  1  0
 25 26  2  0
  7 27  2  0
 27  2  1  0
 20 10  1  0
 26 21  1  0
 18 13  1  0
M  END
>  <cnnaffinity>  (355) 
-6.12365

>  <filename>  (355) 
Fc1ccc(F)c(OCc2nc(C3CCOCC3)nn2-c2cccnc2)c1

>  <enamine_id>  (355) 
PV-006998026168

$$$$

     RDKit          3D

 25 28  0  0  0  0  0  0  0  0999 V2000
    8.1625    1.7983   27.1764 C   0  0  0  0  0  0  0  0  0  0  0  0
    8.4655    1.8269   25.6952 C   0  0  0  0  0  0  0  0  0  0  0  0
    7.4061    1.6677   24.7935 C   0  0  0  0  0  0  0  0  0  0  0  0
    7.6147    1.7613   23.4204 C   0  0  0  0  0  0  0  0  0  0  0  0
    8.8794    2.0615   22.8938 C   0  0  0  0  0  0  0  0  0  0  0  0
    9.0537    2.0070   21.3865 C   0  0  0  0  0  0  0  0  0  0  0  0
    9.5229    0.6031   20.9263 C   0  0  0  0  0  0  0  0  0  0  0  0
    8.6429   -0.5143   21.3794 C   0  0  0  0  0  0  0  0  0  0  0  0
    8.8881   -1.3616   22.3601 N   0  0  0  0  0  0  0  0  0  0  0  0
    7.6812   -1.9499   22.5697 C   0  0  0  0  0  0  0  0  0  0  0  0
    7.4369   -2.8848   23.7033 C   0  0  0  0  0  0  0  0  0  0  0  0
    7.5545   -2.2190   25.1075 C   0  0  0  0  0  0  0  0  0  0  0  0
    8.9132   -3.3312   25.5937 S   0  0  0  0  0  0  0  0  0  0  0  0
    8.5506   -3.9416   23.9127 C   0  0  0  0  0  0  0  0  0  0  0  0
    6.7277   -1.5709   21.7454 N   0  0  0  0  0  0  0  0  0  0  0  0
    7.3563   -0.6635   20.9459 N   0  0  0  0  0  0  0  0  0  0  0  0
    6.6588   -0.0122   19.8957 C   0  0  0  0  0  0  0  0  0  0  0  0
    5.4407    0.6273   20.1527 C   0  0  0  0  0  0  0  0  0  0  0  0
    4.8141    1.3057   19.1046 C   0  0  0  0  0  0  0  0  0  0  0  0
    5.4122    1.2980   17.8387 C   0  0  0  0  0  0  0  0  0  0  0  0
    6.5614    0.6580   17.5738 N   0  0  0  0  0  0  0  0  0  0  0  0
    7.1673    0.0209   18.5829 C   0  0  0  0  0  0  0  0  0  0  0  0
    9.9595    2.2441   23.7870 C   0  0  0  0  0  0  0  0  0  0  0  0
   11.3248    2.6590   23.2807 C   0  0  0  0  0  0  0  0  0  0  0  0
    9.7502    2.0434   25.1665 C   0  0  0  0  0  0  0  0  0  0  0  0
  1  2  1  0
  2  3  2  0
  3  4  1  0
  4  5  2  0
  5  6  1  0
  6  7  1  0
  7  8  1  0
  8  9  2  0
  9 10  1  0
 10 11  1  0
 11 12  1  0
 12 13  1  0
 13 14  1  0
 10 15  2  0
 15 16  1  0
 16 17  1  0
 17 18  2  0
 18 19  1  0
 19 20  2  0
 20 21  1  0
 21 22  2  0
  5 23  1  0
 23 24  1  0
 23 25  2  0
 25  2  1  0
 16  8  1  0
 22 17  1  0
 14 11  1  0
M  END
>  <cnnaffinity>  (356) 
-6.12274

>  <filename>  (356) 
Cc1ccc(CCc2nc(C3CSC3)nn2-c2cccnc2)c(C)c1

>  <enamine_id>  (356) 
PV-006904328474

$$$$

     RDKit          3D

 28 31  0  0  0  0  0  0  0  0999 V2000
    7.3614    3.6094   27.2691 C   0  0  0  0  0  0  0  0  0  0  0  0
    7.6460    3.8065   25.7974 C   0  0  0  0  0  0  0  0  0  0  0  0
    7.3690    5.0562   25.2284 C   0  0  0  0  0  0  0  0  0  0  0  0
    7.5840    5.2767   23.8705 C   0  0  0  0  0  0  0  0  0  0  0  0
    8.0902    4.2554   23.0613 C   0  0  0  0  0  0  0  0  0  0  0  0
    8.3937    3.0072   23.6246 C   0  0  0  0  0  0  0  0  0  0  0  0
    8.8942    1.9581   22.8993 O   0  0  0  0  0  0  0  0  0  0  0  0
    9.0225    2.0219   21.4869 C   0  0  0  0  0  0  0  0  0  0  0  0
    9.5045    0.6498   21.0078 C   0  0  0  0  0  0  0  0  0  0  0  0
    8.6146   -0.4529   21.4498 C   0  0  0  0  0  0  0  0  0  0  0  0
    8.8483   -1.2871   22.4373 N   0  0  0  0  0  0  0  0  0  0  0  0
    7.6648   -1.9493   22.5634 C   0  0  0  0  0  0  0  0  0  0  0  0
    7.4382   -2.9388   23.6693 C   0  0  0  0  0  0  0  0  0  0  0  0
    7.4317   -2.2499   25.0633 C   0  0  0  0  0  0  0  0  0  0  0  0
    7.3347   -3.2917   26.1786 C   0  0  0  0  0  0  0  0  0  0  0  0
    8.3660   -4.2586   26.0830 O   0  0  0  0  0  0  0  0  0  0  0  0
    8.3134   -4.9871   24.8687 C   0  0  0  0  0  0  0  0  0  0  0  0
    8.4887   -4.0770   23.6511 C   0  0  0  0  0  0  0  0  0  0  0  0
    6.7390   -1.6042   21.6945 N   0  0  0  0  0  0  0  0  0  0  0  0
    7.3604   -0.6509   20.9473 N   0  0  0  0  0  0  0  0  0  0  0  0
    6.6610    0.0172   19.9023 C   0  0  0  0  0  0  0  0  0  0  0  0
    5.4382    0.6457   20.1646 C   0  0  0  0  0  0  0  0  0  0  0  0
    4.8122    1.3110   19.1065 C   0  0  0  0  0  0  0  0  0  0  0  0
    5.3998    1.2976   17.8354 C   0  0  0  0  0  0  0  0  0  0  0  0
    6.5574    0.6721   17.5731 N   0  0  0  0  0  0  0  0  0  0  0  0
    7.1685    0.0546   18.5915 C   0  0  0  0  0  0  0  0  0  0  0  0
    8.2002    2.7716   25.0114 C   0  0  0  0  0  0  0  0  0  0  0  0
    8.5237    1.4287   25.6470 C   0  0  0  0  0  0  0  0  0  0  0  0
  1  2  1  0
  2  3  2  0
  3  4  1  0
  4  5  2  0
  5  6  1  0
  6  7  1  0
  7  8  1  0
  8  9  1  0
  9 10  1  0
 10 11  2  0
 11 12  1  0
 12 13  1  0
 13 14  1  0
 14 15  1  0
 15 16  1  0
 16 17  1  0
 17 18  1  0
 12 19  2  0
 19 20  1  0
 20 21  1  0
 21 22  2  0
 22 23  1  0
 23 24  2  0
 24 25  1  0
 25 26  2  0
  6 27  2  0
 27 28  1  0
 27  2  1  0
 20 10  1  0
 26 21  1  0
 18 13  1  0
M  END
>  <cnnaffinity>  (357) 
-6.12246

>  <filename>  (357) 
Cc1cccc(OCCc2nc(C3CCOCC3)nn2-c2cccnc2)c1C

>  <enamine_id>  (357) 
PV-006732790699

$$$$

     RDKit          3D

 23 26  0  0  0  0  0  0  0  0999 V2000
    9.7329    1.8638   22.8426 C   0  0  0  0  0  0  0  0  0  0  0  0
    8.4406    1.7014   23.6510 C   0  0  2  0  0  0  0  0  0  0  0  0
    7.2413    1.2278   22.7914 C   0  0  0  0  0  0  0  0  0  0  0  0
    7.4615   -0.1292   22.2367 C   0  0  0  0  0  0  0  0  0  0  0  0
    8.0157   -1.0777   22.9630 N   0  0  0  0  0  0  0  0  0  0  0  0
    8.2031   -2.0769   22.0727 C   0  0  0  0  0  0  0  0  0  0  0  0
    8.9721   -3.2991   22.4162 C   0  0  0  0  0  0  0  0  0  0  0  0
    8.5576   -4.1781   23.6374 C   0  0  0  0  0  0  0  0  0  0  0  0
    9.9657   -3.9908   24.2558 C   0  0  0  0  0  0  0  0  0  0  0  0
   10.3516   -3.0333   23.1054 C   0  0  0  0  0  0  0  0  0  0  0  0
    7.7895   -1.8187   20.8472 N   0  0  0  0  0  0  0  0  0  0  0  0
    7.2600   -0.5715   20.9623 N   0  0  0  0  0  0  0  0  0  0  0  0
    6.5823    0.0407   19.8718 C   0  0  0  0  0  0  0  0  0  0  0  0
    5.3603    0.6941   20.0733 C   0  0  0  0  0  0  0  0  0  0  0  0
    4.7739    1.3453   18.9857 C   0  0  0  0  0  0  0  0  0  0  0  0
    5.4185    1.3163   17.7489 C   0  0  0  0  0  0  0  0  0  0  0  0
    6.5617    0.6380   17.5373 N   0  0  0  0  0  0  0  0  0  0  0  0
    7.1183    0.0013   18.5734 C   0  0  0  0  0  0  0  0  0  0  0  0
    8.0656    2.9209   24.3607 N   0  0  0  0  0  0  0  0  0  0  0  0
    7.9157    3.0377   25.7205 C   0  0  0  0  0  0  0  0  0  0  0  0
    7.4511    4.2994   25.9959 C   0  0  0  0  0  0  0  0  0  0  0  0
    7.2998    4.9707   24.7505 C   0  0  0  0  0  0  0  0  0  0  0  0
    7.6803    4.0953   23.7664 C   0  0  0  0  0  0  0  0  0  0  0  0
  2  1  1  6
  2  3  1  0
  3  4  1  0
  4  5  2  0
  5  6  1  0
  6  7  1  0
  7  8  1  0
  8  9  1  0
  9 10  1  0
  6 11  2  0
 11 12  1  0
 12 13  1  0
 13 14  2  0
 14 15  1  0
 15 16  2  0
 16 17  1  0
 17 18  2  0
  2 19  1  0
 19 20  1  0
 20 21  2  0
 21 22  1  0
 22 23  2  0
 12  4  1  0
 18 13  1  0
 23 19  1  0
 10  7  1  0
M  END
>  <cnnaffinity>  (358) 
-6.1223

>  <filename>  (358) 
CC(Cc1nc(C2CCC2)nn1-c1cccnc1)n1cccc1

>  <enamine_id>  (358) 
PV-006783036895

$$$$

     RDKit          3D

 25 28  0  0  0  0  0  0  0  0999 V2000
    7.4361    5.5458   22.9799 F   0  0  0  0  0  0  0  0  0  0  0  0
    7.9853    4.0459   22.5754 C   0  0  0  0  0  0  0  0  0  0  0  0
    7.9563    4.3891   22.5293 C   0  0  0  0  0  0  0  0  0  0  0  0
    8.1821    2.6179   21.1430 C   0  0  0  0  0  0  0  0  0  0  0  0
    9.0407    1.8096   21.7927 C   0  0  0  0  0  0  0  0  0  0  0  0
    9.5196    0.4294   21.3031 C   0  0  0  0  0  0  0  0  0  0  0  0
    8.4912   -0.5800   21.6677 C   0  0  0  0  0  0  0  0  0  0  0  0
    8.5440   -1.2880   22.7656 N   0  0  0  0  0  0  0  0  0  0  0  0
    7.3566   -1.9506   22.7740 C   0  0  0  0  0  0  0  0  0  0  0  0
    6.9523   -2.9717   23.8158 C   0  0  2  0  0  0  0  0  0  0  0  0
    7.7093   -2.7884   25.1538 C   0  0  0  0  0  0  0  0  0  0  0  0
    9.0970   -3.3896   25.1402 C   0  0  0  0  0  0  0  0  0  0  0  0
    9.5418   -4.2050   24.1788 C   0  0  0  0  0  0  0  0  0  0  0  0
    8.6800   -4.6327   23.0106 C   0  0  0  0  0  0  0  0  0  0  0  0
    7.1811   -4.4075   23.2739 C   0  0  0  0  0  0  0  0  0  0  0  0
    6.5689   -1.6744   21.7542 N   0  0  0  0  0  0  0  0  0  0  0  0
    7.2977   -0.7725   21.0310 N   0  0  0  0  0  0  0  0  0  0  0  0
    6.6929   -0.1295   19.9137 C   0  0  0  0  0  0  0  0  0  0  0  0
    5.4175    0.4333   20.0564 C   0  0  0  0  0  0  0  0  0  0  0  0
    4.8684    1.1125   18.9702 C   0  0  0  0  0  0  0  0  0  0  0  0
    5.5901    1.1793   17.7723 C   0  0  0  0  0  0  0  0  0  0  0  0
    6.7893    0.5974   17.6096 N   0  0  0  0  0  0  0  0  0  0  0  0
    7.3222   -0.0396   18.6608 C   0  0  0  0  0  0  0  0  0  0  0  0
    9.4708    2.2520   23.0559 N   0  0  0  0  0  0  0  0  0  0  0  0
    9.0249    3.4850   23.3884 C   0  0  0  0  0  0  0  0  0  0  0  0
  1  2  1  0
  2  3  2  0
  3  4  1  0
  4  5  2  0
  5  6  1  0
  6  7  1  0
  7  8  2  0
  8  9  1  0
 10  9  1  6
 10 11  1  0
 11 12  1  0
 12 13  2  0
 13 14  1  0
 14 15  1  0
  9 16  2  0
 16 17  1  0
 17 18  1  0
 18 19  2  0
 19 20  1  0
 20 21  2  0
 21 22  1  0
 22 23  2  0
  5 24  1  0
 24 25  2  0
 25  2  1  0
 17  7  1  0
 23 18  1  0
 15 10  1  0
M  END
>  <cnnaffinity>  (359) 
-6.12167

>  <filename>  (359) 
Fc1ccc(Cc2nc(C3CC=CCC3)nn2-c2cccnc2)nc1

>  <enamine_id>  (359) 
PV-006763926873

$$$$

     RDKit          3D

 25 28  0  0  0  0  0  0  0  0999 V2000
   10.1290    4.4613   23.4667 O   0  0  0  0  0  0  0  0  0  0  0  0
    9.0316    4.7834   23.0247 C   0  0  0  0  0  0  0  0  0  0  0  0
    8.8333    5.8688   22.0727 C   0  0  0  0  0  0  0  0  0  0  0  0
    7.6164    6.1281   21.5215 C   0  0  0  0  0  0  0  0  0  0  0  0
    6.4877    5.3397   21.8967 C   0  0  0  0  0  0  0  0  0  0  0  0
    6.6296    4.3891   22.8583 C   0  0  0  0  0  0  0  0  0  0  0  0
    7.8458    4.1358   23.4545 N   0  0  0  0  0  0  0  0  0  0  0  0
    7.9853    3.0333   24.4200 C   0  0  0  0  0  0  0  0  0  0  0  0
    8.3410    1.7118   23.7427 C   0  0  0  0  0  0  0  0  0  0  0  0
    7.2322    1.2333   22.7814 C   0  0  0  0  0  0  0  0  0  0  0  0
    7.4502   -0.1369   22.2403 C   0  0  0  0  0  0  0  0  0  0  0  0
    7.9633   -1.1064   22.9650 N   0  0  0  0  0  0  0  0  0  0  0  0
    8.1875   -2.0897   22.0641 C   0  0  0  0  0  0  0  0  0  0  0  0
    8.9902   -3.2902   22.4085 C   0  0  0  0  0  0  0  0  0  0  0  0
   10.3428   -2.9723   23.1331 C   0  0  0  0  0  0  0  0  0  0  0  0
    9.9770   -3.9661   24.2560 C   0  0  0  0  0  0  0  0  0  0  0  0
    8.5783   -4.1756   23.6258 C   0  0  0  0  0  0  0  0  0  0  0  0
    7.7877   -1.8213   20.8362 N   0  0  0  0  0  0  0  0  0  0  0  0
    7.2648   -0.5718   20.9546 N   0  0  0  0  0  0  0  0  0  0  0  0
    6.5874    0.0456   19.8709 C   0  0  0  0  0  0  0  0  0  0  0  0
    5.3724    0.7093   20.0779 C   0  0  0  0  0  0  0  0  0  0  0  0
    4.7830    1.3513   18.9874 C   0  0  0  0  0  0  0  0  0  0  0  0
    5.4222    1.3096   17.7457 C   0  0  0  0  0  0  0  0  0  0  0  0
    6.5635    0.6311   17.5322 N   0  0  0  0  0  0  0  0  0  0  0  0
    7.1207   -0.0026   18.5692 C   0  0  0  0  0  0  0  0  0  0  0  0
  1  2  2  0
  2  3  1  0
  3  4  2  0
  4  5  1  0
  5  6  2  0
  6  7  1  0
  7  8  1  0
  8  9  1  0
  9 10  1  0
 10 11  1  0
 11 12  2  0
 12 13  1  0
 13 14  1  0
 14 15  1  0
 15 16  1  0
 16 17  1  0
 13 18  2  0
 18 19  1  0
 19 20  1  0
 20 21  2  0
 21 22  1  0
 22 23  2  0
 23 24  1  0
 24 25  2  0
  7  2  1  0
 19 11  1  0
 25 20  1  0
 17 14  1  0
M  END
>  <cnnaffinity>  (360) 
-6.12164

>  <filename>  (360) 
O=c1ccccn1CCCc1nc(C2CCC2)nn1-c1cccnc1

>  <enamine_id>  (360) 
PV-007105682102

$$$$

     RDKit          3D

 26 29  0  0  0  0  0  0  0  0999 V2000
    6.6759    1.6225   23.5009 Cl  0  0  0  0  0  0  0  0  0  0  0  0
    8.3455    1.6786   24.0002 C   0  0  0  0  0  0  0  0  0  0  0  0
    8.5351    1.4213   25.2853 N   0  0  0  0  0  0  0  0  0  0  0  0
    9.7937    1.3816   25.7363 C   0  0  0  0  0  0  0  0  0  0  0  0
   10.9107    1.6666   24.9452 C   0  0  0  0  0  0  0  0  0  0  0  0
   10.6822    1.9129   23.5917 C   0  0  0  0  0  0  0  0  0  0  0  0
    9.3788    1.9289   23.0694 C   0  0  0  0  0  0  0  0  0  0  0  0
    9.1958    1.9827   21.5692 C   0  0  0  0  0  0  0  0  0  0  0  0
    9.5368    0.6007   20.9359 C   0  0  0  0  0  0  0  0  0  0  0  0
    8.6385   -0.5095   21.3857 C   0  0  0  0  0  0  0  0  0  0  0  0
    8.8687   -1.3770   22.3567 N   0  0  0  0  0  0  0  0  0  0  0  0
    7.6609   -1.9825   22.5245 C   0  0  0  0  0  0  0  0  0  0  0  0
    7.3889   -2.9139   23.6773 C   0  0  0  0  0  0  0  0  0  0  0  0
    6.7090   -2.1644   24.8756 C   0  0  0  0  0  0  0  0  0  0  0  0
    6.0072   -3.1458   25.8471 C   0  0  0  0  0  0  0  0  0  0  0  0
    6.5158   -4.4568   25.7324 O   0  0  0  0  0  0  0  0  0  0  0  0
    6.2472   -5.0643   24.4825 C   0  0  0  0  0  0  0  0  0  0  0  0
    6.5477   -4.1481   23.2709 C   0  0  0  0  0  0  0  0  0  0  0  0
    6.7256   -1.5916   21.6780 N   0  0  0  0  0  0  0  0  0  0  0  0
    7.3626   -0.6618   20.9243 N   0  0  0  0  0  0  0  0  0  0  0  0
    6.6674    0.0019   19.8796 C   0  0  0  0  0  0  0  0  0  0  0  0
    5.4518    0.6381   20.1530 C   0  0  0  0  0  0  0  0  0  0  0  0
    4.8099    1.3060   19.1075 C   0  0  0  0  0  0  0  0  0  0  0  0
    5.3968    1.2918   17.8369 C   0  0  0  0  0  0  0  0  0  0  0  0
    6.5417    0.6487   17.5606 N   0  0  0  0  0  0  0  0  0  0  0  0
    7.1623    0.0221   18.5638 C   0  0  0  0  0  0  0  0  0  0  0  0
  1  2  1  0
  2  3  2  0
  3  4  1  0
  4  5  2  0
  5  6  1  0
  6  7  2  0
  7  8  1  0
  8  9  1  0
  9 10  1  0
 10 11  2  0
 11 12  1  0
 12 13  1  0
 13 14  1  0
 14 15  1  0
 15 16  1  0
 16 17  1  0
 17 18  1  0
 12 19  2  0
 19 20  1  0
 20 21  1  0
 21 22  2  0
 22 23  1  0
 23 24  2  0
 24 25  1  0
 25 26  2  0
  7  2  1  0
 20 10  1  0
 26 21  1  0
 18 13  1  0
M  END
>  <cnnaffinity>  (361) 
-6.11932

>  <filename>  (361) 
Clc1ncccc1CCc1nc(C2CCOCC2)nn1-c1cccnc1

>  <enamine_id>  (361) 
PV-006899322791

$$$$

     RDKit          3D

 23 26  0  0  0  0  0  0  0  0999 V2000
   10.9528    0.4300   21.3781 C   0  0  0  0  0  0  0  0  0  0  0  0
    9.4896    0.6874   21.0052 C   0  0  2  0  0  0  0  0  0  0  0  0
    8.9404    2.0384   21.5723 C   0  0  0  0  0  0  0  0  0  0  0  0
    8.8227    2.0422   23.0622 C   0  0  0  0  0  0  0  0  0  0  0  0
    9.7363    2.3248   24.0443 C   0  0  0  0  0  0  0  0  0  0  0  0
    9.2283    2.0574   25.2927 N   0  0  0  0  0  0  0  0  0  0  0  0
    8.0207    1.6034   25.0827 C   0  0  0  0  0  0  0  0  0  0  0  0
    7.7196    1.5855   23.7539 N   0  0  0  0  0  0  0  0  0  0  0  0
    8.6290   -0.4635   21.4364 C   0  0  0  0  0  0  0  0  0  0  0  0
    8.8565   -1.3084   22.4285 N   0  0  0  0  0  0  0  0  0  0  0  0
    7.6766   -1.9555   22.5609 C   0  0  0  0  0  0  0  0  0  0  0  0
    7.4107   -2.8925   23.6926 C   0  0  0  0  0  0  0  0  0  0  0  0
    6.3802   -2.3674   24.7521 C   0  0  0  0  0  0  0  0  0  0  0  0
    5.4342   -3.5400   24.3895 C   0  0  0  0  0  0  0  0  0  0  0  0
    6.4688   -4.0920   23.3761 C   0  0  0  0  0  0  0  0  0  0  0  0
    6.7508   -1.6054   21.6847 N   0  0  0  0  0  0  0  0  0  0  0  0
    7.3686   -0.6507   20.9449 N   0  0  0  0  0  0  0  0  0  0  0  0
    6.6583    0.0087   19.9022 C   0  0  0  0  0  0  0  0  0  0  0  0
    5.4378    0.6407   20.1623 C   0  0  0  0  0  0  0  0  0  0  0  0
    4.8114    1.3100   19.1073 C   0  0  0  0  0  0  0  0  0  0  0  0
    5.3978    1.2962   17.8371 C   0  0  0  0  0  0  0  0  0  0  0  0
    6.5557    0.6696   17.5759 N   0  0  0  0  0  0  0  0  0  0  0  0
    7.1660    0.0491   18.5923 C   0  0  0  0  0  0  0  0  0  0  0  0
  2  1  1  1
  2  3  1  0
  3  4  1  0
  4  5  2  0
  5  6  1  0
  6  7  2  0
  7  8  1  0
  2  9  1  0
  9 10  2  0
 10 11  1  0
 11 12  1  0
 12 13  1  0
 13 14  1  0
 14 15  1  0
 11 16  2  0
 16 17  1  0
 17 18  1  0
 18 19  2  0
 19 20  1  0
 20 21  2  0
 21 22  1  0
 22 23  2  0
  8  4  1  0
 17  9  1  0
 23 18  1  0
 15 12  1  0
M  END
>  <cnnaffinity>  (362) 
-6.11804

>  <filename>  (362) 
CC(Cc1cnc[nH]1)c1nc(C2CCC2)nn1-c1cccnc1

>  <enamine_id>  (362) 
PV-006988020292

$$$$

     RDKit          3D

 24 26  0  0  0  0  0  0  0  0999 V2000
    6.3247    6.6746   21.2571 C   0  0  0  0  0  0  0  0  0  0  0  0
    7.3261    5.8067   21.9772 C   0  0  0  0  0  0  0  0  0  0  0  0
    8.2707    6.3306   22.8718 C   0  0  0  0  0  0  0  0  0  0  0  0
    9.2264    5.6040   23.4672 N   0  0  0  0  0  0  0  0  0  0  0  0
    9.3153    4.3070   23.1360 C   0  0  0  0  0  0  0  0  0  0  0  0
    8.4344    3.6541   22.2569 C   0  0  0  0  0  0  0  0  0  0  0  0
    8.5824    2.1995   21.8563 C   0  0  0  0  0  0  0  0  0  0  0  0
    7.6470    1.2565   22.6467 C   0  0  0  0  0  0  0  0  0  0  0  0
    7.7458   -0.1634   22.2000 C   0  0  0  0  0  0  0  0  0  0  0  0
    8.3306   -1.1394   22.8632 N   0  0  0  0  0  0  0  0  0  0  0  0
    8.3002   -2.1727   21.9822 C   0  0  0  0  0  0  0  0  0  0  0  0
    8.8418   -3.5187   22.3106 C   0  0  0  0  0  0  0  0  0  0  0  0
    8.0298   -4.2914   23.3690 C   0  0  0  0  0  0  0  0  0  0  0  0
    6.6530   -4.6345   22.7931 C   0  0  0  0  0  0  0  0  0  0  0  0
    8.7808   -5.5494   23.8120 C   0  0  0  0  0  0  0  0  0  0  0  0
    7.7530   -1.8950   20.8187 N   0  0  0  0  0  0  0  0  0  0  0  0
    7.3623   -0.6039   20.9650 N   0  0  0  0  0  0  0  0  0  0  0  0
    6.6546    0.0446   19.9191 C   0  0  0  0  0  0  0  0  0  0  0  0
    5.4385    0.7014   20.1488 C   0  0  0  0  0  0  0  0  0  0  0  0
    4.8227    1.3364   19.0663 C   0  0  0  0  0  0  0  0  0  0  0  0
    5.4360    1.2938   17.8107 C   0  0  0  0  0  0  0  0  0  0  0  0
    6.5857    0.6338   17.5798 N   0  0  0  0  0  0  0  0  0  0  0  0
    7.1672    0.0107   18.6090 C   0  0  0  0  0  0  0  0  0  0  0  0
    7.3955    4.4346   21.7323 C   0  0  0  0  0  0  0  0  0  0  0  0
  1  2  1  0
  2  3  2  0
  3  4  1  0
  4  5  2  0
  5  6  1  0
  6  7  1  0
  7  8  1  0
  8  9  1  0
  9 10  2  0
 10 11  1  0
 11 12  1  0
 12 13  1  0
 13 14  1  0
 13 15  1  0
 11 16  2  0
 16 17  1  0
 17 18  1  0
 18 19  2  0
 19 20  1  0
 20 21  2  0
 21 22  1  0
 22 23  2  0
  6 24  2  0
 24  2  1  0
 17  9  1  0
 23 18  1  0
M  END
>  <cnnaffinity>  (363) 
-6.11604

>  <filename>  (363) 
Cc1cncc(CCc2nc(CC(C)C)nn2-c2cccnc2)c1

>  <enamine_id>  (363) 
PV-007076491522

$$$$

     RDKit          3D

 24 26  0  0  0  0  0  0  0  0999 V2000
    6.3834   -2.6019   24.6866 C   0  0  0  0  0  0  0  0  0  0  0  0
    7.3862   -3.0807   23.6173 C   0  0  0  0  0  0  0  0  0  0  0  0
    6.9705   -4.4433   23.0325 C   0  0  0  0  0  0  0  0  0  0  0  0
    7.6159   -2.0367   22.5544 C   0  0  0  0  0  0  0  0  0  0  0  0
    6.7052   -1.6865   21.6658 N   0  0  0  0  0  0  0  0  0  0  0  0
    7.3417   -0.7394   20.9260 N   0  0  0  0  0  0  0  0  0  0  0  0
    6.6565   -0.0587   19.8733 C   0  0  0  0  0  0  0  0  0  0  0  0
    5.4507    0.5973   20.1367 C   0  0  0  0  0  0  0  0  0  0  0  0
    4.8393    1.2994   19.0931 C   0  0  0  0  0  0  0  0  0  0  0  0
    5.4387    1.3077   17.8274 C   0  0  0  0  0  0  0  0  0  0  0  0
    6.5768    0.6523   17.5592 N   0  0  0  0  0  0  0  0  0  0  0  0
    7.1625   -0.0165   18.5598 C   0  0  0  0  0  0  0  0  0  0  0  0
    8.5881   -0.5528   21.4482 C   0  0  0  0  0  0  0  0  0  0  0  0
    9.5722    0.4495   21.0031 C   0  0  0  0  0  0  0  0  0  0  0  0
    9.3902    1.8466   21.5813 C   0  0  0  0  0  0  0  0  0  0  0  0
   10.4558    2.5983   21.0343 O   0  0  0  0  0  0  0  0  0  0  0  0
   11.5994    2.8592   21.7120 C   0  0  0  0  0  0  0  0  0  0  0  0
   12.4009    3.8428   21.1165 C   0  0  0  0  0  0  0  0  0  0  0  0
   13.5142    4.2822   21.7953 C   0  0  0  0  0  0  0  0  0  0  0  0
   14.2277    5.2880   21.2688 F   0  0  0  0  0  0  0  0  0  0  0  0
   13.9215    3.7229   22.9992 C   0  0  0  0  0  0  0  0  0  0  0  0
   13.1954    2.6482   23.5112 C   0  0  0  0  0  0  0  0  0  0  0  0
   12.0086    2.2318   22.8993 C   0  0  0  0  0  0  0  0  0  0  0  0
    8.7887   -1.3609   22.4667 N   0  0  0  0  0  0  0  0  0  0  0  0
  1  2  1  0
  2  3  1  0
  2  4  1  0
  4  5  2  0
  5  6  1  0
  6  7  1  0
  7  8  2  0
  8  9  1  0
  9 10  2  0
 10 11  1  0
 11 12  2  0
  6 13  1  0
 13 14  1  0
 14 15  1  0
 15 16  1  0
 16 17  1  0
 17 18  2  0
 18 19  1  0
 19 20  1  0
 19 21  2  0
 21 22  1  0
 22 23  2  0
 13 24  2  0
 24  4  1  0
 12  7  1  0
 23 17  1  0
M  END
>  <cnnaffinity>  (364) 
-6.11195

>  <filename>  (364) 
CC(C)c1nc(CCOc2cccc(F)c2)n(-c2cccnc2)n1

>  <enamine_id>  (364) 
PV-006873307693

$$$$

     RDKit          3D

 24 27  0  0  0  0  0  0  0  0999 V2000
    9.7948    6.2811   24.5650 C   0  0  0  0  0  0  0  0  0  0  0  0
    8.9577    5.5307   23.5735 C   0  0  0  0  0  0  0  0  0  0  0  0
    9.2856    4.3467   23.1657 N   0  0  0  0  0  0  0  0  0  0  0  0
    8.3473    3.8286   22.2936 C   0  0  0  0  0  0  0  0  0  0  0  0
    8.4692    2.4077   21.8132 C   0  0  0  0  0  0  0  0  0  0  0  0
    7.6099    1.4171   22.6504 C   0  0  0  0  0  0  0  0  0  0  0  0
    7.6724   -0.0139   22.2216 C   0  0  0  0  0  0  0  0  0  0  0  0
    8.1354   -0.9978   22.9661 N   0  0  0  0  0  0  0  0  0  0  0  0
    8.0767   -2.0772   22.1412 C   0  0  0  0  0  0  0  0  0  0  0  0
    8.5347   -3.4568   22.5468 C   0  0  0  0  0  0  0  0  0  0  0  0
    8.6475   -3.7236   24.0648 C   0  0  0  0  0  0  0  0  0  0  0  0
    8.4917   -5.2525   24.2497 C   0  0  0  0  0  0  0  0  0  0  0  0
    8.0416   -5.8278   22.8855 C   0  0  0  0  0  0  0  0  0  0  0  0
    7.6677   -4.6200   22.0155 C   0  0  0  0  0  0  0  0  0  0  0  0
    7.6217   -1.8131   20.9261 N   0  0  0  0  0  0  0  0  0  0  0  0
    7.3204   -0.4901   20.9919 N   0  0  0  0  0  0  0  0  0  0  0  0
    6.6454    0.1346   19.9022 C   0  0  0  0  0  0  0  0  0  0  0  0
    5.4505    0.8372   20.0921 C   0  0  0  0  0  0  0  0  0  0  0  0
    4.8515    1.4319   18.9792 C   0  0  0  0  0  0  0  0  0  0  0  0
    5.4725    1.3132   17.7313 C   0  0  0  0  0  0  0  0  0  0  0  0
    6.6035    0.6119   17.5369 N   0  0  0  0  0  0  0  0  0  0  0  0
    7.1630    0.0183   18.5971 C   0  0  0  0  0  0  0  0  0  0  0  0
    7.3023    4.6539   22.0376 C   0  0  0  0  0  0  0  0  0  0  0  0
    7.4565    6.1259   22.9180 S   0  0  0  0  0  0  0  0  0  0  0  0
  1  2  1  0
  2  3  2  0
  3  4  1  0
  4  5  1  0
  5  6  1  0
  6  7  1  0
  7  8  2  0
  8  9  1  0
  9 10  1  0
 10 11  1  0
 11 12  1  0
 12 13  1  0
 13 14  1  0
  9 15  2  0
 15 16  1  0
 16 17  1  0
 17 18  2  0
 18 19  1  0
 19 20  2  0
 20 21  1  0
 21 22  2  0
  4 23  2  0
 23 24  1  0
 24  2  1  0
 16  7  1  0
 22 17  1  0
 14 10  1  0
M  END
>  <cnnaffinity>  (365) 
-6.10955

>  <filename>  (365) 
Cc1nc(CCc2nc(C3CCCC3)nn2-c2cccnc2)cs1

>  <enamine_id>  (365) 
PV-007044836365

$$$$

     RDKit          3D

 27 30  0  0  0  0  0  0  0  0999 V2000
    7.3590    5.8883   26.4095 F   0  0  0  0  0  0  0  0  0  0  0  0
    7.7586    4.9424   25.5461 C   0  0  0  0  0  0  0  0  0  0  0  0
    7.7784    5.1870   24.1846 C   0  0  0  0  0  0  0  0  0  0  0  0
    8.1976    4.1879   23.2896 C   0  0  0  0  0  0  0  0  0  0  0  0
    8.6009    2.9343   23.7675 C   0  0  0  0  0  0  0  0  0  0  0  0
    9.0285    1.9002   22.9953 O   0  0  0  0  0  0  0  0  0  0  0  0
    9.0482    2.0012   21.5742 C   0  0  0  0  0  0  0  0  0  0  0  0
    9.4984    0.6458   21.0215 C   0  0  0  0  0  0  0  0  0  0  0  0
    8.6078   -0.4647   21.4533 C   0  0  0  0  0  0  0  0  0  0  0  0
    8.8285   -1.2930   22.4485 N   0  0  0  0  0  0  0  0  0  0  0  0
    7.6468   -1.9569   22.5618 C   0  0  0  0  0  0  0  0  0  0  0  0
    7.4234   -2.9372   23.6561 C   0  0  1  0  0  0  0  0  0  0  0  0
    8.5153   -4.0201   23.7946 C   0  0  0  0  0  0  0  0  0  0  0  0
    8.4664   -4.3749   25.2850 C   0  0  0  0  0  0  0  0  0  0  0  0
    7.8501   -3.2801   25.9467 O   0  0  0  0  0  0  0  0  0  0  0  0
    7.4273   -2.2750   25.0478 C   0  0  0  0  0  0  0  0  0  0  0  0
    6.7260   -1.6132   21.6912 N   0  0  0  0  0  0  0  0  0  0  0  0
    7.3546   -0.6623   20.9440 N   0  0  0  0  0  0  0  0  0  0  0  0
    6.6593    0.0129   19.9017 C   0  0  0  0  0  0  0  0  0  0  0  0
    5.4392    0.6465   20.1654 C   0  0  0  0  0  0  0  0  0  0  0  0
    4.8131    1.3114   19.1083 C   0  0  0  0  0  0  0  0  0  0  0  0
    5.4008    1.2966   17.8368 C   0  0  0  0  0  0  0  0  0  0  0  0
    6.5588    0.6716   17.5748 N   0  0  0  0  0  0  0  0  0  0  0  0
    7.1681    0.0514   18.5913 C   0  0  0  0  0  0  0  0  0  0  0  0
    8.5822    2.6851   25.1535 C   0  0  0  0  0  0  0  0  0  0  0  0
    8.1590    3.6844   26.0173 C   0  0  0  0  0  0  0  0  0  0  0  0
    8.1131    3.4466   27.3303 F   0  0  0  0  0  0  0  0  0  0  0  0
  1  2  1  0
  2  3  2  0
  3  4  1  0
  4  5  2  0
  5  6  1  0
  6  7  1  0
  7  8  1  0
  8  9  1  0
  9 10  2  0
 10 11  1  0
 12 11  1  6
 12 13  1  0
 13 14  1  0
 14 15  1  0
 15 16  1  0
 11 17  2  0
 17 18  1  0
 18 19  1  0
 19 20  2  0
 20 21  1  0
 21 22  2  0
 22 23  1  0
 23 24  2  0
  5 25  1  0
 25 26  2  0
 26 27  1  0
 26  2  1  0
 18  9  1  0
 24 19  1  0
 16 12  1  0
M  END
>  <cnnaffinity>  (366) 
-6.10881

>  <filename>  (366) 
Fc1ccc(OCCc2nc(C3CCOC3)nn2-c2cccnc2)cc1F

>  <enamine_id>  (366) 
PV-006784089203

$$$$

     RDKit          3D

 27 30  0  0  0  0  0  0  0  0999 V2000
    9.2007    7.0578   23.9345 C   0  0  0  0  0  0  0  0  0  0  0  0
    8.5046    5.7267   23.9851 C   0  0  0  0  0  0  0  0  0  0  0  0
    7.1910    5.6176   24.4508 C   0  0  0  0  0  0  0  0  0  0  0  0
    6.5406    4.3825   24.4592 C   0  0  0  0  0  0  0  0  0  0  0  0
    7.1819    3.2214   24.0093 C   0  0  0  0  0  0  0  0  0  0  0  0
    6.4476    1.9020   24.0309 C   0  0  0  0  0  0  0  0  0  0  0  0
    8.5189    3.3183   23.5613 C   0  0  0  0  0  0  0  0  0  0  0  0
    9.2549    2.1250   23.0003 C   0  0  0  0  0  0  0  0  0  0  0  0
    9.0640    1.9847   21.4818 C   0  0  0  0  0  0  0  0  0  0  0  0
    9.5208    0.6156   20.9507 C   0  0  0  0  0  0  0  0  0  0  0  0
    8.6271   -0.4872   21.4255 C   0  0  0  0  0  0  0  0  0  0  0  0
    8.8355   -1.2910   22.4485 N   0  0  0  0  0  0  0  0  0  0  0  0
    7.6415   -1.9328   22.5831 C   0  0  0  0  0  0  0  0  0  0  0  0
    7.4026   -2.8740   23.7084 C   0  0  1  0  0  0  0  0  0  0  0  0
    8.5116   -3.9150   23.9495 C   0  0  0  0  0  0  0  0  0  0  0  0
    8.4076   -4.1948   25.4505 C   0  0  0  0  0  0  0  0  0  0  0  0
    7.7289   -3.0912   26.0293 O   0  0  0  0  0  0  0  0  0  0  0  0
    7.3222   -2.1481   25.0602 C   0  0  0  0  0  0  0  0  0  0  0  0
    6.7201   -1.5852   21.7138 N   0  0  0  0  0  0  0  0  0  0  0  0
    7.3581   -0.6607   20.9448 N   0  0  0  0  0  0  0  0  0  0  0  0
    6.6615    0.0107   19.9035 C   0  0  0  0  0  0  0  0  0  0  0  0
    5.4424    0.6464   20.1644 C   0  0  0  0  0  0  0  0  0  0  0  0
    4.8130    1.3111   19.1093 C   0  0  0  0  0  0  0  0  0  0  0  0
    5.4022    1.2964   17.8370 C   0  0  0  0  0  0  0  0  0  0  0  0
    6.5596    0.6721   17.5771 N   0  0  0  0  0  0  0  0  0  0  0  0
    7.1689    0.0535   18.5921 C   0  0  0  0  0  0  0  0  0  0  0  0
    9.1477    4.5679   23.5385 C   0  0  0  0  0  0  0  0  0  0  0  0
  1  2  1  0
  2  3  2  0
  3  4  1  0
  4  5  2  0
  5  6  1  0
  5  7  1  0
  7  8  1  0
  8  9  1  0
  9 10  1  0
 10 11  1  0
 11 12  2  0
 12 13  1  0
 14 13  1  6
 14 15  1  0
 15 16  1  0
 16 17  1  0
 17 18  1  0
 13 19  2  0
 19 20  1  0
 20 21  1  0
 21 22  2  0
 22 23  1  0
 23 24  2  0
 24 25  1  0
 25 26  2  0
  7 27  2  0
 27  2  1  0
 20 11  1  0
 26 21  1  0
 18 14  1  0
M  END
>  <cnnaffinity>  (367) 
-6.10862

>  <filename>  (367) 
Cc1ccc(C)c(CCCc2nc(C3CCOC3)nn2-c2cccnc2)c1

>  <enamine_id>  (367) 
PV-007106880027

$$$$

     RDKit          3D

 26 29  0  0  0  0  0  0  0  0999 V2000
    5.7254   -5.4535   26.7892 C   0  0  0  0  0  0  0  0  0  0  0  0
    6.4627   -4.6089   25.7552 C   0  0  1  0  0  0  0  0  0  0  0  0
    6.0478   -4.9770   24.3226 C   0  0  0  0  0  0  0  0  0  0  0  0
    6.8655   -4.2315   23.2489 C   0  0  0  0  0  0  0  0  0  0  0  0
    7.4027   -2.8573   23.7349 C   0  0  1  0  0  0  0  0  0  0  0  0
    7.6707   -1.9244   22.5912 C   0  0  0  0  0  0  0  0  0  0  0  0
    6.7367   -1.5804   21.7203 N   0  0  0  0  0  0  0  0  0  0  0  0
    7.3686   -0.6704   20.9343 N   0  0  0  0  0  0  0  0  0  0  0  0
    6.6599    0.0035   19.9012 C   0  0  0  0  0  0  0  0  0  0  0  0
    5.4429    0.6432   20.1663 C   0  0  0  0  0  0  0  0  0  0  0  0
    4.8124    1.3103   19.1111 C   0  0  0  0  0  0  0  0  0  0  0  0
    5.4004    1.2952   17.8399 C   0  0  0  0  0  0  0  0  0  0  0  0
    6.5617    0.6749   17.5788 N   0  0  0  0  0  0  0  0  0  0  0  0
    7.1708    0.0531   18.5941 C   0  0  0  0  0  0  0  0  0  0  0  0
    8.6404   -0.5033   21.3957 C   0  0  0  0  0  0  0  0  0  0  0  0
    9.5269    0.6148   20.9485 C   0  0  0  0  0  0  0  0  0  0  0  0
    9.0551    2.0124   21.4471 C   0  0  0  0  0  0  0  0  0  0  0  0
    8.9434    2.0843   22.9458 C   0  0  0  0  0  0  0  0  0  0  0  0
    7.7346    1.8249   23.5869 C   0  0  0  0  0  0  0  0  0  0  0  0
    7.7494    1.8210   24.9697 C   0  0  0  0  0  0  0  0  0  0  0  0
    8.8536    2.0431   25.6798 N   0  0  0  0  0  0  0  0  0  0  0  0
    9.9588    2.2320   24.9610 C   0  0  0  0  0  0  0  0  0  0  0  0
   10.0644    2.2802   23.6379 N   0  0  0  0  0  0  0  0  0  0  0  0
    8.8648   -1.3040   22.4216 N   0  0  0  0  0  0  0  0  0  0  0  0
    6.4587   -2.2092   24.7735 C   0  0  0  0  0  0  0  0  0  0  0  0
    6.2659   -3.0963   26.0192 C   0  0  0  0  0  0  0  0  0  0  0  0
  2  1  1  1
  2  3  1  0
  3  4  1  0
  4  5  1  0
  5  6  1  6
  6  7  2  0
  7  8  1  0
  8  9  1  0
  9 10  2  0
 10 11  1  0
 11 12  2  0
 12 13  1  0
 13 14  2  0
  8 15  1  0
 15 16  1  0
 16 17  1  0
 17 18  1  0
 18 19  2  0
 19 20  1  0
 20 21  2  0
 21 22  1  0
 22 23  2  0
 15 24  2  0
  5 25  1  0
 25 26  1  0
 26  2  1  0
 24  6  1  0
 14  9  1  0
 23 18  1  0
M  END
>  <cnnaffinity>  (368) 
-6.10846

>  <filename>  (368) 
CC1CCC(c2nc(CCc3ccncn3)n(-c3cccnc3)n2)CC1

>  <enamine_id>  (368) 
PV-006730399593

$$$$

     RDKit          3D

 24 27  0  0  0  0  0  0  0  0999 V2000
    7.7920    4.9016   25.6272 C   0  0  0  0  0  0  0  0  0  0  0  0
    7.8002    5.1540   24.2554 C   0  0  0  0  0  0  0  0  0  0  0  0
    8.2106    4.1716   23.3411 C   0  0  0  0  0  0  0  0  0  0  0  0
    8.6190    2.9127   23.8069 C   0  0  0  0  0  0  0  0  0  0  0  0
    9.0422    1.8860   23.0131 O   0  0  0  0  0  0  0  0  0  0  0  0
    9.0490    2.0003   21.5926 C   0  0  0  0  0  0  0  0  0  0  0  0
    9.4956    0.6522   21.0208 C   0  0  0  0  0  0  0  0  0  0  0  0
    8.6058   -0.4603   21.4467 C   0  0  0  0  0  0  0  0  0  0  0  0
    8.8331   -1.2921   22.4346 N   0  0  0  0  0  0  0  0  0  0  0  0
    7.6523   -1.9602   22.5573 C   0  0  0  0  0  0  0  0  0  0  0  0
    7.4235   -2.9282   23.6634 C   0  0  0  0  0  0  0  0  0  0  0  0
    8.6023   -3.8977   23.9788 C   0  0  0  0  0  0  0  0  0  0  0  0
    8.7323   -3.2799   25.3913 C   0  0  0  0  0  0  0  0  0  0  0  0
    7.5448   -2.3320   25.1050 C   0  0  0  0  0  0  0  0  0  0  0  0
    6.7307   -1.6209   21.6807 N   0  0  0  0  0  0  0  0  0  0  0  0
    7.3526   -0.6630   20.9397 N   0  0  0  0  0  0  0  0  0  0  0  0
    6.6583    0.0137   19.8997 C   0  0  0  0  0  0  0  0  0  0  0  0
    5.4388    0.6471   20.1642 C   0  0  0  0  0  0  0  0  0  0  0  0
    4.8118    1.3120   19.1076 C   0  0  0  0  0  0  0  0  0  0  0  0
    5.4006    1.2967   17.8364 C   0  0  0  0  0  0  0  0  0  0  0  0
    6.5587    0.6721   17.5743 N   0  0  0  0  0  0  0  0  0  0  0  0
    7.1686    0.0525   18.5903 C   0  0  0  0  0  0  0  0  0  0  0  0
    8.6127    2.6545   25.1940 C   0  0  0  0  0  0  0  0  0  0  0  0
    8.2023    3.6446   26.0897 C   0  0  0  0  0  0  0  0  0  0  0  0
  1  2  2  0
  2  3  1  0
  3  4  2  0
  4  5  1  0
  5  6  1  0
  6  7  1  0
  7  8  1  0
  8  9  2  0
  9 10  1  0
 10 11  1  0
 11 12  1  0
 12 13  1  0
 13 14  1  0
 10 15  2  0
 15 16  1  0
 16 17  1  0
 17 18  2  0
 18 19  1  0
 19 20  2  0
 20 21  1  0
 21 22  2  0
  4 23  1  0
 23 24  2  0
 24  1  1  0
 16  8  1  0
 22 17  1  0
 14 11  1  0
M  END
>  <cnnaffinity>  (369) 
-6.10781

>  <filename>  (369) 
c1ccc(OCCc2nc(C3CCC3)nn2-c2cccnc2)cc1

>  <enamine_id>  (369) 
PV-007020573534

$$$$

     RDKit          3D

 26 29  0  0  0  0  0  0  0  0999 V2000
    8.5277    2.0303   26.9638 O   0  0  0  0  0  0  0  0  0  0  0  0
    8.5492    1.9904   25.7439 C   0  0  0  0  0  0  0  0  0  0  0  0
    7.4185    1.7744   24.8552 C   0  0  0  0  0  0  0  0  0  0  0  0
    7.5945    1.8182   23.5042 C   0  0  0  0  0  0  0  0  0  0  0  0
    8.9149    2.0337   22.9451 C   0  0  0  0  0  0  0  0  0  0  0  0
    9.1261    1.9814   21.4408 C   0  0  0  0  0  0  0  0  0  0  0  0
    9.5353    0.5776   20.8895 C   0  0  0  0  0  0  0  0  0  0  0  0
    8.6494   -0.5432   21.3396 C   0  0  0  0  0  0  0  0  0  0  0  0
    8.8889   -1.3757   22.3341 N   0  0  0  0  0  0  0  0  0  0  0  0
    7.6654   -1.9336   22.5717 C   0  0  0  0  0  0  0  0  0  0  0  0
    7.4027   -2.8406   23.7415 C   0  0  2  0  0  0  0  0  0  0  0  0
    7.2514   -2.0257   25.0626 C   0  0  0  0  0  0  0  0  0  0  0  0
    7.2392   -2.9052   26.2898 C   0  0  0  0  0  0  0  0  0  0  0  0
    7.6427   -4.1777   26.2926 C   0  0  0  0  0  0  0  0  0  0  0  0
    8.1735   -4.8828   25.0692 C   0  0  0  0  0  0  0  0  0  0  0  0
    8.5071   -3.9086   23.9240 C   0  0  0  0  0  0  0  0  0  0  0  0
    6.7104   -1.5339   21.7565 N   0  0  0  0  0  0  0  0  0  0  0  0
    7.3552   -0.6681   20.9267 N   0  0  0  0  0  0  0  0  0  0  0  0
    6.6574   -0.0261   19.8659 C   0  0  0  0  0  0  0  0  0  0  0  0
    5.4389    0.6087   20.1244 C   0  0  0  0  0  0  0  0  0  0  0  0
    4.8192    1.3028   19.0834 C   0  0  0  0  0  0  0  0  0  0  0  0
    5.4147    1.3101   17.8175 C   0  0  0  0  0  0  0  0  0  0  0  0
    6.5488    0.6469   17.5420 N   0  0  0  0  0  0  0  0  0  0  0  0
    7.1488   -0.0081   18.5444 C   0  0  0  0  0  0  0  0  0  0  0  0
    9.9543    2.2082   23.7117 N   0  0  0  0  0  0  0  0  0  0  0  0
    9.7437    2.1691   25.0614 N   0  0  0  0  0  0  0  0  0  0  0  0
  1  2  2  0
  2  3  1  0
  3  4  2  0
  4  5  1  0
  5  6  1  0
  6  7  1  0
  7  8  1  0
  8  9  2  0
  9 10  1  0
 11 10  1  6
 11 12  1  0
 12 13  1  0
 13 14  2  0
 14 15  1  0
 15 16  1  0
 10 17  2  0
 17 18  1  0
 18 19  1  0
 19 20  2  0
 20 21  1  0
 21 22  2  0
 22 23  1  0
 23 24  2  0
  5 25  2  0
 25 26  1  0
 26  2  1  0
 18  8  1  0
 24 19  1  0
 16 11  1  0
M  END
>  <cnnaffinity>  (370) 
-6.10731

>  <filename>  (370) 
O=c1ccc(CCc2nc(C3CC=CCC3)nn2-c2cccnc2)n[nH]1

>  <enamine_id>  (370) 
PV-006963252202

$$$$

     RDKit          3D

 25 28  0  0  0  0  0  0  0  0999 V2000
    8.4505    1.4616   27.0330 O   0  0  0  0  0  0  0  0  0  0  0  0
    8.7258    1.6118   25.8520 C   0  0  0  0  0  0  0  0  0  0  0  0
   10.0322    1.8591   25.2355 C   0  0  0  0  0  0  0  0  0  0  0  0
   10.1248    2.0189   23.8891 C   0  0  0  0  0  0  0  0  0  0  0  0
    8.9313    1.9580   23.0595 C   0  0  0  0  0  0  0  0  0  0  0  0
    9.0379    1.9888   21.5502 C   0  0  0  0  0  0  0  0  0  0  0  0
    9.5138    0.6225   20.9604 C   0  0  0  0  0  0  0  0  0  0  0  0
    8.6451   -0.5282   21.3687 C   0  0  0  0  0  0  0  0  0  0  0  0
    8.8784   -1.3599   22.3654 N   0  0  0  0  0  0  0  0  0  0  0  0
    7.6688   -1.9518   22.5667 C   0  0  0  0  0  0  0  0  0  0  0  0
    7.4405   -2.9431   23.6789 C   0  0  0  0  0  0  0  0  0  0  0  0
    8.2163   -2.6294   24.9804 C   0  0  0  0  0  0  0  0  0  0  0  0
    7.4324   -3.3241   26.1154 C   0  0  0  0  0  0  0  0  0  0  0  0
    6.0099   -3.6095   25.5680 C   0  0  0  0  0  0  0  0  0  0  0  0
    5.9725   -3.0402   24.1397 C   0  0  0  0  0  0  0  0  0  0  0  0
    6.7287   -1.5789   21.7120 N   0  0  0  0  0  0  0  0  0  0  0  0
    7.3639   -0.6721   20.9290 N   0  0  0  0  0  0  0  0  0  0  0  0
    6.6569    0.0017   19.8950 C   0  0  0  0  0  0  0  0  0  0  0  0
    5.4402    0.6378   20.1621 C   0  0  0  0  0  0  0  0  0  0  0  0
    4.8115    1.3080   19.1079 C   0  0  0  0  0  0  0  0  0  0  0  0
    5.3989    1.2949   17.8371 C   0  0  0  0  0  0  0  0  0  0  0  0
    6.5558    0.6693   17.5735 N   0  0  0  0  0  0  0  0  0  0  0  0
    7.1656    0.0462   18.5863 C   0  0  0  0  0  0  0  0  0  0  0  0
    7.7524    1.7559   23.5798 N   0  0  0  0  0  0  0  0  0  0  0  0
    7.7020    1.5590   24.9242 N   0  0  0  0  0  0  0  0  0  0  0  0
  1  2  2  0
  2  3  1  0
  3  4  2  0
  4  5  1  0
  5  6  1  0
  6  7  1  0
  7  8  1  0
  8  9  2  0
  9 10  1  0
 10 11  1  0
 11 12  1  0
 12 13  1  0
 13 14  1  0
 14 15  1  0
 10 16  2  0
 16 17  1  0
 17 18  1  0
 18 19  2  0
 19 20  1  0
 20 21  2  0
 21 22  1  0
 22 23  2  0
  5 24  2  0
 24 25  1  0
 25  2  1  0
 17  8  1  0
 23 18  1  0
 15 11  1  0
M  END
>  <cnnaffinity>  (371) 
-6.10551

>  <filename>  (371) 
O=c1ccc(CCc2nc(C3CCCC3)nn2-c2cccnc2)n[nH]1

>  <enamine_id>  (371) 
PV-007105441709

$$$$

     RDKit          3D

 25 28  0  0  0  0  0  0  0  0999 V2000
    7.4851    5.2346   26.8188 C   0  0  0  0  0  0  0  0  0  0  0  0
    6.8396    4.4214   25.7390 C   0  0  0  0  0  0  0  0  0  0  0  0
    7.0797    3.1175   25.4578 C   0  0  0  0  0  0  0  0  0  0  0  0
    6.2902    2.6050   24.3804 C   0  0  0  0  0  0  0  0  0  0  0  0
    6.4691    1.2347   23.8215 C   0  0  0  0  0  0  0  0  0  0  0  0
    7.4814    1.2572   22.6628 C   0  0  0  0  0  0  0  0  0  0  0  0
    7.6797   -0.1042   22.1212 C   0  0  0  0  0  0  0  0  0  0  0  0
    8.2376   -1.0321   22.8653 N   0  0  0  0  0  0  0  0  0  0  0  0
    8.3000   -2.0991   22.0364 C   0  0  0  0  0  0  0  0  0  0  0  0
    8.9066   -3.3582   22.5446 C   0  0  2  0  0  0  0  0  0  0  0  0
    8.1605   -4.0431   23.7133 C   0  0  0  0  0  0  0  0  0  0  0  0
    9.2811   -4.8270   24.3984 C   0  0  0  0  0  0  0  0  0  0  0  0
   10.4750   -4.0990   24.1628 O   0  0  0  0  0  0  0  0  0  0  0  0
   10.2785   -3.0815   23.2009 C   0  0  0  0  0  0  0  0  0  0  0  0
    7.8160   -1.9027   20.8273 N   0  0  0  0  0  0  0  0  0  0  0  0
    7.3727   -0.6119   20.8958 N   0  0  0  0  0  0  0  0  0  0  0  0
    6.6361    0.0079   19.8482 C   0  0  0  0  0  0  0  0  0  0  0  0
    5.4369    0.6861   20.1076 C   0  0  0  0  0  0  0  0  0  0  0  0
    4.8099    1.3494   19.0494 C   0  0  0  0  0  0  0  0  0  0  0  0
    5.4044    1.3137   17.7846 C   0  0  0  0  0  0  0  0  0  0  0  0
    6.5353    0.6342   17.5222 N   0  0  0  0  0  0  0  0  0  0  0  0
    7.1259   -0.0140   18.5311 C   0  0  0  0  0  0  0  0  0  0  0  0
    5.4668    3.5438   23.8387 C   0  0  0  0  0  0  0  0  0  0  0  0
    4.5474    3.3628   22.6625 C   0  0  0  0  0  0  0  0  0  0  0  0
    5.6327    5.0571   24.6702 S   0  0  0  0  0  0  0  0  0  0  0  0
  1  2  1  0
  2  3  2  0
  3  4  1  0
  4  5  1  0
  5  6  1  0
  6  7  1  0
  7  8  2  0
  8  9  1  0
 10  9  1  1
 10 11  1  0
 11 12  1  0
 12 13  1  0
 13 14  1  0
  9 15  2  0
 15 16  1  0
 16 17  1  0
 17 18  2  0
 18 19  1  0
 19 20  2  0
 20 21  1  0
 21 22  2  0
  4 23  2  0
 23 24  1  0
 23 25  1  0
 25  2  1  0
 16  7  1  0
 22 17  1  0
 14 10  1  0
M  END
>  <cnnaffinity>  (372) 
-6.10521

>  <filename>  (372) 
Cc1cc(CCc2nc(C3CCOC3)nn2-c2cccnc2)c(C)s1

>  <enamine_id>  (372) 
PV-006785025680

$$$$

     RDKit          3D

 27 30  0  0  0  0  0  0  0  0999 V2000
    6.9686    7.4817   23.6874 F   0  0  0  0  0  0  0  0  0  0  0  0
    7.4165    6.2371   23.4732 C   0  0  0  0  0  0  0  0  0  0  0  0
    6.5150    5.1996   23.2627 C   0  0  0  0  0  0  0  0  0  0  0  0
    7.0046    3.9067   23.0522 C   0  0  0  0  0  0  0  0  0  0  0  0
    8.3792    3.6433   23.0605 C   0  0  0  0  0  0  0  0  0  0  0  0
    8.8900    2.2595   22.7656 C   0  0  0  0  0  0  0  0  0  0  0  0
    9.0338    2.0199   21.2575 C   0  0  0  0  0  0  0  0  0  0  0  0
    9.5387    0.6079   20.9248 C   0  0  0  0  0  0  0  0  0  0  0  0
    8.6410   -0.4652   21.4269 C   0  0  0  0  0  0  0  0  0  0  0  0
    8.8760   -1.2715   22.4467 N   0  0  0  0  0  0  0  0  0  0  0  0
    7.7036   -1.9313   22.5821 C   0  0  0  0  0  0  0  0  0  0  0  0
    7.4693   -2.9323   23.6599 C   0  0  2  0  0  0  0  0  0  0  0  0
    6.9484   -4.2991   23.1687 C   0  0  0  0  0  0  0  0  0  0  0  0
    6.1277   -4.8075   24.3566 C   0  0  0  0  0  0  0  0  0  0  0  0
    5.8073   -3.6786   25.1547 O   0  0  0  0  0  0  0  0  0  0  0  0
    6.3868   -2.4904   24.6605 C   0  0  0  0  0  0  0  0  0  0  0  0
    6.7645   -1.5954   21.7152 N   0  0  0  0  0  0  0  0  0  0  0  0
    7.3785   -0.6614   20.9453 N   0  0  0  0  0  0  0  0  0  0  0  0
    6.6626    0.0061   19.9070 C   0  0  0  0  0  0  0  0  0  0  0  0
    5.4414    0.6388   20.1681 C   0  0  0  0  0  0  0  0  0  0  0  0
    4.8134    1.3070   19.1111 C   0  0  0  0  0  0  0  0  0  0  0  0
    5.4005    1.2956   17.8389 C   0  0  0  0  0  0  0  0  0  0  0  0
    6.5608    0.6736   17.5782 N   0  0  0  0  0  0  0  0  0  0  0  0
    7.1699    0.0538   18.5960 C   0  0  0  0  0  0  0  0  0  0  0  0
    9.2766    4.7027   23.2571 C   0  0  0  0  0  0  0  0  0  0  0  0
    8.7943    5.9893   23.4654 C   0  0  0  0  0  0  0  0  0  0  0  0
    9.6524    6.9994   23.6666 F   0  0  0  0  0  0  0  0  0  0  0  0
  1  2  1  0
  2  3  2  0
  3  4  1  0
  4  5  2  0
  5  6  1  0
  6  7  1  0
  7  8  1  0
  8  9  1  0
  9 10  2  0
 10 11  1  0
 12 11  1  6
 12 13  1  0
 13 14  1  0
 14 15  1  0
 15 16  1  0
 11 17  2  0
 17 18  1  0
 18 19  1  0
 19 20  2  0
 20 21  1  0
 21 22  2  0
 22 23  1  0
 23 24  2  0
  5 25  1  0
 25 26  2  0
 26 27  1  0
 26  2  1  0
 18  9  1  0
 24 19  1  0
 16 12  1  0
M  END
>  <cnnaffinity>  (373) 
-6.10447

>  <filename>  (373) 
Fc1ccc(CCCc2nc(C3CCOC3)nn2-c2cccnc2)cc1F

>  <enamine_id>  (373) 
PV-006884574502

$$$$

     RDKit          3D

 25 28  0  0  0  0  0  0  0  0999 V2000
    6.1745    2.9502   22.8572 F   0  0  0  0  0  0  0  0  0  0  0  0
    7.0563    3.9521   23.0642 C   0  0  0  0  0  0  0  0  0  0  0  0
    6.5584    5.2343   23.2739 C   0  0  0  0  0  0  0  0  0  0  0  0
    7.4703    6.2761   23.4607 C   0  0  0  0  0  0  0  0  0  0  0  0
    8.8461    6.0353   23.4262 C   0  0  0  0  0  0  0  0  0  0  0  0
    9.2809    4.7305   23.2131 C   0  0  0  0  0  0  0  0  0  0  0  0
   10.6078    4.5022   23.1623 F   0  0  0  0  0  0  0  0  0  0  0  0
    8.4186    3.6424   23.0499 C   0  0  0  0  0  0  0  0  0  0  0  0
    8.9190    2.2516   22.7565 C   0  0  0  0  0  0  0  0  0  0  0  0
    9.0443    2.0121   21.2465 C   0  0  0  0  0  0  0  0  0  0  0  0
    9.5406    0.5953   20.9164 C   0  0  0  0  0  0  0  0  0  0  0  0
    8.6334   -0.4698   21.4265 C   0  0  0  0  0  0  0  0  0  0  0  0
    8.8538   -1.2583   22.4572 N   0  0  0  0  0  0  0  0  0  0  0  0
    7.6706   -1.9150   22.5939 C   0  0  0  0  0  0  0  0  0  0  0  0
    7.4696   -2.9560   23.6311 C   0  0  0  0  0  0  0  0  0  0  0  0
    8.4347   -4.1114   23.7141 C   0  0  0  0  0  0  0  0  0  0  0  0
    7.0378   -4.3354   23.2117 C   0  0  0  0  0  0  0  0  0  0  0  0
    6.7389   -1.5770   21.7243 N   0  0  0  0  0  0  0  0  0  0  0  0
    7.3682   -0.6619   20.9429 N   0  0  0  0  0  0  0  0  0  0  0  0
    6.6640    0.0083   19.9043 C   0  0  0  0  0  0  0  0  0  0  0  0
    5.4444    0.6443   20.1664 C   0  0  0  0  0  0  0  0  0  0  0  0
    4.8128    1.3100   19.1110 C   0  0  0  0  0  0  0  0  0  0  0  0
    5.3998    1.2958   17.8394 C   0  0  0  0  0  0  0  0  0  0  0  0
    6.5601    0.6740   17.5780 N   0  0  0  0  0  0  0  0  0  0  0  0
    7.1709    0.0545   18.5947 C   0  0  0  0  0  0  0  0  0  0  0  0
  1  2  1  0
  2  3  2  0
  3  4  1  0
  4  5  2  0
  5  6  1  0
  6  7  1  0
  6  8  2  0
  8  9  1  0
  9 10  1  0
 10 11  1  0
 11 12  1  0
 12 13  2  0
 13 14  1  0
 14 15  1  0
 15 16  1  0
 16 17  1  0
 14 18  2  0
 18 19  1  0
 19 20  1  0
 20 21  2  0
 21 22  1  0
 22 23  2  0
 23 24  1  0
 24 25  2  0
  8  2  1  0
 19 12  1  0
 25 20  1  0
 17 15  1  0
M  END
>  <cnnaffinity>  (374) 
-6.10445

>  <filename>  (374) 
Fc1cccc(F)c1CCCc1nc(C2CC2)nn1-c1cccnc1

>  <enamine_id>  (374) 
PV-006871331639

$$$$

     RDKit          3D

 24 27  0  0  0  0  0  0  0  0999 V2000
    8.5154    6.2474   23.1361 C   0  0  0  0  0  0  0  0  0  0  0  0
    7.6903    5.7348   22.1470 C   0  0  0  0  0  0  0  0  0  0  0  0
    7.7261    4.4616   21.7722 N   0  0  0  0  0  0  0  0  0  0  0  0
    8.6450    3.6846   22.3512 C   0  0  0  0  0  0  0  0  0  0  0  0
    8.7227    2.2611   21.8700 C   0  0  0  0  0  0  0  0  0  0  0  0
    7.7032    1.3537   22.6249 C   0  0  0  0  0  0  0  0  0  0  0  0
    7.6804   -0.0804   22.2015 C   0  0  0  0  0  0  0  0  0  0  0  0
    8.1427   -1.0728   22.9323 N   0  0  0  0  0  0  0  0  0  0  0  0
    8.1364   -2.1244   22.0747 C   0  0  0  0  0  0  0  0  0  0  0  0
    8.6644   -3.4809   22.4570 C   0  0  0  0  0  0  0  0  0  0  0  0
    8.7510   -3.7677   23.9710 C   0  0  0  0  0  0  0  0  0  0  0  0
    8.6287   -5.2987   24.1462 C   0  0  0  0  0  0  0  0  0  0  0  0
    8.2221   -5.8731   22.7717 C   0  0  0  0  0  0  0  0  0  0  0  0
    7.8395   -4.6637   21.9110 C   0  0  0  0  0  0  0  0  0  0  0  0
    7.7034   -1.8432   20.8561 N   0  0  0  0  0  0  0  0  0  0  0  0
    7.3448   -0.5333   20.9575 N   0  0  0  0  0  0  0  0  0  0  0  0
    6.6312    0.0938   19.8908 C   0  0  0  0  0  0  0  0  0  0  0  0
    5.4147    0.7621   20.0993 C   0  0  0  0  0  0  0  0  0  0  0  0
    4.8061    1.3773   18.9990 C   0  0  0  0  0  0  0  0  0  0  0  0
    5.4313    1.3212   17.7518 C   0  0  0  0  0  0  0  0  0  0  0  0
    6.5660    0.6322   17.5351 N   0  0  0  0  0  0  0  0  0  0  0  0
    7.1315    0.0156   18.5787 C   0  0  0  0  0  0  0  0  0  0  0  0
    9.4547    4.0612   23.3479 N   0  0  0  0  0  0  0  0  0  0  0  0
    9.3881    5.3383   23.7196 C   0  0  0  0  0  0  0  0  0  0  0  0
  1  2  2  0
  2  3  1  0
  3  4  2  0
  4  5  1  0
  5  6  1  0
  6  7  1  0
  7  8  2  0
  8  9  1  0
  9 10  1  0
 10 11  1  0
 11 12  1  0
 12 13  1  0
 13 14  1  0
  9 15  2  0
 15 16  1  0
 16 17  1  0
 17 18  2  0
 18 19  1  0
 19 20  2  0
 20 21  1  0
 21 22  2  0
  4 23  1  0
 23 24  2  0
 24  1  1  0
 16  7  1  0
 22 17  1  0
 14 10  1  0
M  END
>  <cnnaffinity>  (375) 
-6.10341

>  <filename>  (375) 
c1cnc(CCc2nc(C3CCCC3)nn2-c2cccnc2)nc1

>  <enamine_id>  (375) 
PV-006789824283

$$$$

     RDKit          3D

 23 26  0  0  0  0  0  0  0  0999 V2000
    4.8143    1.3039   19.1131 C   0  0  0  0  0  0  0  0  0  0  0  0
    5.4032    1.2915   17.8428 C   0  0  0  0  0  0  0  0  0  0  0  0
    6.5597    0.6653   17.5790 N   0  0  0  0  0  0  0  0  0  0  0  0
    7.1760    0.0473   18.5924 C   0  0  0  0  0  0  0  0  0  0  0  0
    6.6771    0.0127   19.9046 C   0  0  0  0  0  0  0  0  0  0  0  0
    7.3813   -0.6512   20.9493 N   0  0  0  0  0  0  0  0  0  0  0  0
    6.7509   -1.5990   21.6889 N   0  0  0  0  0  0  0  0  0  0  0  0
    7.6832   -1.9757   22.5456 C   0  0  0  0  0  0  0  0  0  0  0  0
    7.4533   -2.9773   23.6259 C   0  0  0  0  0  0  0  0  0  0  0  0
    6.7214   -4.2855   23.1874 C   0  0  0  0  0  0  0  0  0  0  0  0
    5.5281   -3.9255   24.1100 C   0  0  0  0  0  0  0  0  0  0  0  0
    6.2680   -2.6535   24.5982 C   0  0  0  0  0  0  0  0  0  0  0  0
    8.8726   -1.3337   22.4109 N   0  0  0  0  0  0  0  0  0  0  0  0
    8.6519   -0.4887   21.4210 C   0  0  0  0  0  0  0  0  0  0  0  0
    9.5533    0.5970   20.9371 C   0  0  0  0  0  0  0  0  0  0  0  0
    9.0664    2.0071   21.3173 C   0  0  0  0  0  0  0  0  0  0  0  0
    8.9401    2.2220   22.8387 C   0  0  0  0  0  0  0  0  0  0  0  0
   10.1969    2.0488   23.5520 N   0  0  0  0  0  0  0  0  0  0  0  0
   11.2982    2.8372   23.3778 C   0  0  0  0  0  0  0  0  0  0  0  0
   12.3535    2.2875   24.0614 C   0  0  0  0  0  0  0  0  0  0  0  0
   11.8622    1.1245   24.7169 C   0  0  0  0  0  0  0  0  0  0  0  0
   10.5404    0.9965   24.3578 C   0  0  0  0  0  0  0  0  0  0  0  0
    5.4530    0.6389   20.1655 C   0  0  0  0  0  0  0  0  0  0  0  0
  1  2  2  0
  2  3  1  0
  3  4  2  0
  4  5  1  0
  5  6  1  0
  6  7  1  0
  7  8  2  0
  8  9  1  0
  9 10  1  0
 10 11  1  0
 11 12  1  0
  8 13  1  0
 13 14  2  0
 14 15  1  0
 15 16  1  0
 16 17  1  0
 17 18  1  0
 18 19  1  0
 19 20  2  0
 20 21  1  0
 21 22  2  0
  5 23  2  0
 23  1  1  0
 14  6  1  0
 22 18  1  0
 12  9  1  0
M  END
>  <cnnaffinity>  (376) 
-6.10297

>  <filename>  (376) 
c1cncc(-n2nc(C3CCC3)nc2CCCn2cccc2)c1

>  <enamine_id>  (376) 
PV-007159006032

$$$$

     RDKit          3D

 27 30  0  0  0  0  0  0  0  0999 V2000
    8.2328    0.3840   27.1414 C   0  0  0  0  0  0  0  0  0  0  0  0
    9.0448    0.8459   25.9493 C   0  0  0  0  0  0  0  0  0  0  0  0
   10.4430    0.6756   25.9100 C   0  0  0  0  0  0  0  0  0  0  0  0
   11.1944    1.0608   24.7936 C   0  0  0  0  0  0  0  0  0  0  0  0
   12.6762    0.8118   24.6795 C   0  0  0  0  0  0  0  0  0  0  0  0
   10.5454    1.6635   23.7066 C   0  0  0  0  0  0  0  0  0  0  0  0
    9.1560    1.7573   23.6923 C   0  0  0  0  0  0  0  0  0  0  0  0
    8.4266    2.1640   22.6139 O   0  0  0  0  0  0  0  0  0  0  0  0
    8.9481    2.0348   21.2928 C   0  0  0  0  0  0  0  0  0  0  0  0
    9.4610    0.6233   20.9366 C   0  0  0  0  0  0  0  0  0  0  0  0
    8.5683   -0.4642   21.4223 C   0  0  0  0  0  0  0  0  0  0  0  0
    8.8302   -1.3256   22.3836 N   0  0  0  0  0  0  0  0  0  0  0  0
    7.6365   -1.9591   22.5621 C   0  0  0  0  0  0  0  0  0  0  0  0
    7.4412   -2.9358   23.6650 C   0  0  1  0  0  0  0  0  0  0  0  0
    8.4199   -4.1326   23.7006 C   0  0  0  0  0  0  0  0  0  0  0  0
    8.4463   -4.5067   25.1960 C   0  0  0  0  0  0  0  0  0  0  0  0
    7.8886   -3.4080   25.9102 O   0  0  0  0  0  0  0  0  0  0  0  0
    7.7055   -2.3067   25.0443 C   0  0  0  0  0  0  0  0  0  0  0  0
    6.6797   -1.5822   21.7401 N   0  0  0  0  0  0  0  0  0  0  0  0
    7.2910   -0.6294   20.9850 N   0  0  0  0  0  0  0  0  0  0  0  0
    6.6130    0.0145   19.9133 C   0  0  0  0  0  0  0  0  0  0  0  0
    5.3963    0.6662   20.1389 C   0  0  0  0  0  0  0  0  0  0  0  0
    4.8056    1.3395   19.0653 C   0  0  0  0  0  0  0  0  0  0  0  0
    5.4317    1.3145   17.8118 C   0  0  0  0  0  0  0  0  0  0  0  0
    6.5748    0.6495   17.5805 N   0  0  0  0  0  0  0  0  0  0  0  0
    7.1442    0.0173   18.6116 C   0  0  0  0  0  0  0  0  0  0  0  0
    8.4179    1.4056   24.8320 C   0  0  0  0  0  0  0  0  0  0  0  0
  1  2  1  0
  2  3  2  0
  3  4  1  0
  4  5  1  0
  4  6  2  0
  6  7  1  0
  7  8  1  0
  8  9  1  0
  9 10  1  0
 10 11  1  0
 11 12  2  0
 12 13  1  0
 14 13  1  6
 14 15  1  0
 15 16  1  0
 16 17  1  0
 17 18  1  0
 13 19  2  0
 19 20  1  0
 20 21  1  0
 21 22  2  0
 22 23  1  0
 23 24  2  0
 24 25  1  0
 25 26  2  0
  7 27  2  0
 27  2  1  0
 20 11  1  0
 26 21  1  0
 18 14  1  0
M  END
>  <cnnaffinity>  (377) 
-6.10172

>  <filename>  (377) 
Cc1cc(C)cc(OCCc2nc(C3CCOC3)nn2-c2cccnc2)c1

>  <enamine_id>  (377) 
PV-006808945772

$$$$

     RDKit          3D

 27 30  0  0  0  0  0  0  0  0999 V2000
   12.5650    1.3030   24.8402 F   0  0  0  0  0  0  0  0  0  0  0  0
   11.2221    1.3378   24.8610 C   0  0  0  0  0  0  0  0  0  0  0  0
   10.5492    0.9071   25.9954 C   0  0  0  0  0  0  0  0  0  0  0  0
    9.1501    0.9663   26.0032 C   0  0  0  0  0  0  0  0  0  0  0  0
    8.4611    1.3814   24.8704 C   0  0  0  0  0  0  0  0  0  0  0  0
    7.1119    1.3897   24.8976 F   0  0  0  0  0  0  0  0  0  0  0  0
    9.1491    1.7727   23.6984 C   0  0  0  0  0  0  0  0  0  0  0  0
    8.4138    2.0955   22.6042 O   0  0  0  0  0  0  0  0  0  0  0  0
    9.0079    2.0136   21.3091 C   0  0  0  0  0  0  0  0  0  0  0  0
    9.5382    0.6110   20.9446 C   0  0  0  0  0  0  0  0  0  0  0  0
    8.6433   -0.4891   21.4036 C   0  0  0  0  0  0  0  0  0  0  0  0
    8.8800   -1.3433   22.3813 N   0  0  0  0  0  0  0  0  0  0  0  0
    7.6698   -1.9263   22.5796 C   0  0  0  0  0  0  0  0  0  0  0  0
    7.4011   -2.8094   23.7526 C   0  0  1  0  0  0  0  0  0  0  0  0
    6.6241   -2.1120   24.9026 C   0  0  0  0  0  0  0  0  0  0  0  0
    5.8982   -3.2814   25.5848 C   0  0  0  0  0  0  0  0  0  0  0  0
    5.9181   -4.3787   24.6839 O   0  0  0  0  0  0  0  0  0  0  0  0
    6.4975   -4.0114   23.4484 C   0  0  0  0  0  0  0  0  0  0  0  0
    6.7230   -1.5358   21.7439 N   0  0  0  0  0  0  0  0  0  0  0  0
    7.3643   -0.6281   20.9645 N   0  0  0  0  0  0  0  0  0  0  0  0
    6.6757    0.0132   19.9008 C   0  0  0  0  0  0  0  0  0  0  0  0
    5.4534    0.6398   20.1565 C   0  0  0  0  0  0  0  0  0  0  0  0
    4.8273    1.3066   19.1036 C   0  0  0  0  0  0  0  0  0  0  0  0
    5.4222    1.3029   17.8361 C   0  0  0  0  0  0  0  0  0  0  0  0
    6.5745    0.6649   17.5765 N   0  0  0  0  0  0  0  0  0  0  0  0
    7.1786    0.0336   18.5890 C   0  0  0  0  0  0  0  0  0  0  0  0
   10.5512    1.8020   23.7312 C   0  0  0  0  0  0  0  0  0  0  0  0
  1  2  1  0
  2  3  2  0
  3  4  1  0
  4  5  2  0
  5  6  1  0
  5  7  1  0
  7  8  1  0
  8  9  1  0
  9 10  1  0
 10 11  1  0
 11 12  2  0
 12 13  1  0
 14 13  1  6
 14 15  1  0
 15 16  1  0
 16 17  1  0
 17 18  1  0
 13 19  2  0
 19 20  1  0
 20 21  1  0
 21 22  2  0
 22 23  1  0
 23 24  2  0
 24 25  1  0
 25 26  2  0
  7 27  2  0
 27  2  1  0
 20 11  1  0
 26 21  1  0
 18 14  1  0
M  END
>  <cnnaffinity>  (378) 
-6.10102

>  <filename>  (378) 
Fc1ccc(F)c(OCCc2nc(C3CCOC3)nn2-c2cccnc2)c1

>  <enamine_id>  (378) 
PV-007011250560

$$$$

     RDKit          3D

 23 26  0  0  0  0  0  0  0  0999 V2000
    8.7921    1.0617   25.5951 C   0  0  0  0  0  0  0  0  0  0  0  0
    7.3401    1.1817   25.2693 C   0  0  0  0  0  0  0  0  0  0  0  0
    6.8367    1.3518   24.0054 C   0  0  0  0  0  0  0  0  0  0  0  0
    7.5789    1.2926   22.6919 C   0  0  0  0  0  0  0  0  0  0  0  0
    7.7005   -0.1092   22.1594 C   0  0  0  0  0  0  0  0  0  0  0  0
    8.2814   -1.0803   22.8386 N   0  0  0  0  0  0  0  0  0  0  0  0
    8.1877   -2.1502   22.0134 C   0  0  0  0  0  0  0  0  0  0  0  0
    8.7136   -3.5117   22.3833 C   0  0  0  0  0  0  0  0  0  0  0  0
    7.9404   -4.6858   21.7409 C   0  0  0  0  0  0  0  0  0  0  0  0
    8.3019   -5.9228   22.5693 C   0  0  0  0  0  0  0  0  0  0  0  0
    8.6581   -5.4197   23.9813 C   0  0  0  0  0  0  0  0  0  0  0  0
    8.7324   -3.8710   23.8951 C   0  0  0  0  0  0  0  0  0  0  0  0
    7.6517   -1.8812   20.8327 N   0  0  0  0  0  0  0  0  0  0  0  0
    7.3008   -0.5745   20.9441 N   0  0  0  0  0  0  0  0  0  0  0  0
    6.5866    0.0565   19.8883 C   0  0  0  0  0  0  0  0  0  0  0  0
    5.3965    0.7589   20.1215 C   0  0  0  0  0  0  0  0  0  0  0  0
    4.7812    1.3818   19.0253 C   0  0  0  0  0  0  0  0  0  0  0  0
    5.3904    1.3087   17.7706 C   0  0  0  0  0  0  0  0  0  0  0  0
    6.5188    0.6149   17.5427 N   0  0  0  0  0  0  0  0  0  0  0  0
    7.0858   -0.0172   18.5759 C   0  0  0  0  0  0  0  0  0  0  0  0
    5.1124    1.3521   24.0713 S   0  0  0  0  0  0  0  0  0  0  0  0
    5.2015    1.1182   25.7775 C   0  0  0  0  0  0  0  0  0  0  0  0
    6.3985    1.0599   26.2700 N   0  0  0  0  0  0  0  0  0  0  0  0
  1  2  1  0
  2  3  2  0
  3  4  1  0
  4  5  1  0
  5  6  2  0
  6  7  1  0
  7  8  1  0
  8  9  1  0
  9 10  1  0
 10 11  1  0
 11 12  1  0
  7 13  2  0
 13 14  1  0
 14 15  1  0
 15 16  2  0
 16 17  1  0
 17 18  2  0
 18 19  1  0
 19 20  2  0
  3 21  1  0
 21 22  1  0
 22 23  2  0
 23  2  1  0
 14  5  1  0
 20 15  1  0
 12  8  1  0
M  END
>  <cnnaffinity>  (379) 
-6.09842

>  <filename>  (379) 
Cc1ncsc1Cc1nc(C2CCCC2)nn1-c1cccnc1

>  <enamine_id>  (379) 
PV-006994607064

$$$$

     RDKit          3D

 24 26  0  0  0  0  0  0  0  0999 V2000
    8.3314   -4.3613   23.3833 C   0  0  0  0  0  0  0  0  0  0  0  0
    7.3723   -3.1723   23.5776 C   0  0  0  0  0  0  0  0  0  0  0  0
    7.5572   -2.5341   24.9747 C   0  0  0  0  0  0  0  0  0  0  0  0
    7.5842   -2.1545   22.4942 C   0  0  0  0  0  0  0  0  0  0  0  0
    6.6324   -1.6467   21.7409 N   0  0  0  0  0  0  0  0  0  0  0  0
    7.2961   -0.7364   20.9791 N   0  0  0  0  0  0  0  0  0  0  0  0
    6.6399   -0.0471   19.9247 C   0  0  0  0  0  0  0  0  0  0  0  0
    5.4318    0.6124   20.1733 C   0  0  0  0  0  0  0  0  0  0  0  0
    4.8211    1.2991   19.1206 C   0  0  0  0  0  0  0  0  0  0  0  0
    5.4314    1.2869   17.8603 C   0  0  0  0  0  0  0  0  0  0  0  0
    6.5868    0.6509   17.6111 N   0  0  0  0  0  0  0  0  0  0  0  0
    7.1788    0.0095   18.6236 C   0  0  0  0  0  0  0  0  0  0  0  0
    8.5989   -0.6951   21.3811 C   0  0  0  0  0  0  0  0  0  0  0  0
    9.5620    0.3319   20.8416 C   0  0  1  0  0  0  0  0  0  0  0  0
    8.9272    1.5560   20.5510 O   0  0  0  0  0  0  0  0  0  0  0  0
   10.8493    0.5319   21.6830 C   0  0  0  0  0  0  0  0  0  0  0  0
   10.6671    1.3249   22.9603 C   0  0  0  0  0  0  0  0  0  0  0  0
   10.2540    0.6852   24.1496 C   0  0  0  0  0  0  0  0  0  0  0  0
    9.8411    1.4289   25.2649 C   0  0  0  0  0  0  0  0  0  0  0  0
    9.7771    2.8247   25.1856 C   0  0  0  0  0  0  0  0  0  0  0  0
   10.3108    3.4811   24.0733 C   0  0  0  0  0  0  0  0  0  0  0  0
   10.8326    2.7252   23.0191 C   0  0  0  0  0  0  0  0  0  0  0  0
   11.7798    3.5743   21.8210 Cl  0  0  0  0  0  0  0  0  0  0  0  0
    8.8250   -1.6452   22.2669 N   0  0  0  0  0  0  0  0  0  0  0  0
  1  2  1  0
  2  3  1  0
  2  4  1  0
  4  5  2  0
  5  6  1  0
  6  7  1  0
  7  8  2  0
  8  9  1  0
  9 10  2  0
 10 11  1  0
 11 12  2  0
  6 13  1  0
 13 14  1  0
 14 15  1  1
 14 16  1  0
 16 17  1  0
 17 18  2  0
 18 19  1  0
 19 20  2  0
 20 21  1  0
 21 22  2  0
 22 23  1  0
 13 24  2  0
 24  4  1  0
 12  7  1  0
 22 17  1  0
M  END
>  <cnnaffinity>  (380) 
-6.09839

>  <filename>  (380) 
CC(C)c1nc(C(O)Cc2ccccc2Cl)n(-c2cccnc2)n1

>  <enamine_id>  (380) 
PV-006749994937

$$$$

     RDKit          3D

 24 26  0  0  0  0  0  0  0  0999 V2000
    6.0186   -1.2980   25.1023 C   0  0  0  0  0  0  0  0  0  0  0  0
    7.2106   -2.2551   25.0610 C   0  0  0  0  0  0  0  0  0  0  0  0
    7.3102   -3.0451   23.7386 C   0  0  1  0  0  0  0  0  0  0  0  0
    6.1962   -3.9276   23.6958 O   0  0  0  0  0  0  0  0  0  0  0  0
    7.4695   -2.0954   22.5601 C   0  0  0  0  0  0  0  0  0  0  0  0
    6.5521   -1.7298   21.6806 N   0  0  0  0  0  0  0  0  0  0  0  0
    7.2295   -0.8576   20.8880 N   0  0  0  0  0  0  0  0  0  0  0  0
    6.5666   -0.1572   19.8419 C   0  0  0  0  0  0  0  0  0  0  0  0
    5.4003    0.5622   20.1143 C   0  0  0  0  0  0  0  0  0  0  0  0
    4.8299    1.3074   19.0783 C   0  0  0  0  0  0  0  0  0  0  0  0
    5.4289    1.2839   17.8132 C   0  0  0  0  0  0  0  0  0  0  0  0
    6.5296    0.5700   17.5356 N   0  0  0  0  0  0  0  0  0  0  0  0
    7.0825   -0.1328   18.5320 C   0  0  0  0  0  0  0  0  0  0  0  0
    8.5089   -0.7282   21.3479 C   0  0  0  0  0  0  0  0  0  0  0  0
    9.5718    0.1345   20.7459 C   0  0  0  0  0  0  0  0  0  0  0  0
   10.3667    0.8539   21.8217 C   0  0  0  0  0  0  0  0  0  0  0  0
    9.8288    2.0284   22.3945 C   0  0  0  0  0  0  0  0  0  0  0  0
    8.4956    2.5933   21.9458 C   0  0  0  0  0  0  0  0  0  0  0  0
   10.5493    2.6765   23.4089 C   0  0  0  0  0  0  0  0  0  0  0  0
   11.7757    2.1690   23.8421 C   0  0  0  0  0  0  0  0  0  0  0  0
   12.2759    0.9829   23.3046 C   0  0  0  0  0  0  0  0  0  0  0  0
   11.5418    0.2632   22.3475 C   0  0  0  0  0  0  0  0  0  0  0  0
   11.9981   -1.1322   21.9613 C   0  0  0  0  0  0  0  0  0  0  0  0
    8.6845   -1.5218   22.3857 N   0  0  0  0  0  0  0  0  0  0  0  0
  1  2  1  0
  2  3  1  0
  3  4  1  6
  3  5  1  0
  5  6  2  0
  6  7  1  0
  7  8  1  0
  8  9  2  0
  9 10  1  0
 10 11  2  0
 11 12  1  0
 12 13  2  0
  7 14  1  0
 14 15  1  0
 15 16  1  0
 16 17  2  0
 17 18  1  0
 17 19  1  0
 19 20  2  0
 20 21  1  0
 21 22  2  0
 22 23  1  0
 14 24  2  0
 24  5  1  0
 13  8  1  0
 22 16  1  0
M  END
>  <cnnaffinity>  (381) 
-6.0957

>  <filename>  (381) 
CCC(O)c1nc(Cc2c(C)cccc2C)n(-c2cccnc2)n1

>  <enamine_id>  (381) 
PV-006972115671

$$$$

     RDKit          3D

 23 26  0  0  0  0  0  0  0  0999 V2000
    9.5111    2.1513   20.9975 Cl  0  0  0  0  0  0  0  0  0  0  0  0
    9.6296    2.1454   22.7149 C   0  0  0  0  0  0  0  0  0  0  0  0
   10.8665    2.4635   23.2825 C   0  0  0  0  0  0  0  0  0  0  0  0
   11.0246    2.3049   24.6552 C   0  0  0  0  0  0  0  0  0  0  0  0
    9.9548    1.8748   25.4390 C   0  0  0  0  0  0  0  0  0  0  0  0
    8.7143    1.6189   24.8522 C   0  0  0  0  0  0  0  0  0  0  0  0
    8.5180    1.7534   23.4739 C   0  0  0  0  0  0  0  0  0  0  0  0
    7.2253    1.2798   22.8091 C   0  0  0  0  0  0  0  0  0  0  0  0
    7.4117   -0.1105   22.2690 C   0  0  0  0  0  0  0  0  0  0  0  0
    7.9166   -1.0801   23.0119 N   0  0  0  0  0  0  0  0  0  0  0  0
    8.1719   -2.0584   22.1174 C   0  0  0  0  0  0  0  0  0  0  0  0
    8.9451   -3.2682   22.4726 C   0  0  0  0  0  0  0  0  0  0  0  0
    8.4608   -4.1368   23.6587 C   0  0  0  0  0  0  0  0  0  0  0  0
   10.1086   -4.0731   24.4458 S   0  0  0  0  0  0  0  0  0  0  0  0
   10.3538   -2.9397   23.0427 C   0  0  0  0  0  0  0  0  0  0  0  0
    7.8369   -1.7882   20.8749 N   0  0  0  0  0  0  0  0  0  0  0  0
    7.2847   -0.5490   20.9774 N   0  0  0  0  0  0  0  0  0  0  0  0
    6.6043    0.0305   19.8791 C   0  0  0  0  0  0  0  0  0  0  0  0
    5.3770    0.6701   20.0818 C   0  0  0  0  0  0  0  0  0  0  0  0
    4.7922    1.3214   18.9950 C   0  0  0  0  0  0  0  0  0  0  0  0
    5.4400    1.2900   17.7567 C   0  0  0  0  0  0  0  0  0  0  0  0
    6.5780    0.6035   17.5407 N   0  0  0  0  0  0  0  0  0  0  0  0
    7.1361   -0.0297   18.5783 C   0  0  0  0  0  0  0  0  0  0  0  0
  1  2  1  0
  2  3  2  0
  3  4  1  0
  4  5  2  0
  5  6  1  0
  6  7  2  0
  7  8  1  0
  8  9  1  0
  9 10  2  0
 10 11  1  0
 11 12  1  0
 12 13  1  0
 13 14  1  0
 14 15  1  0
 11 16  2  0
 16 17  1  0
 17 18  1  0
 18 19  2  0
 19 20  1  0
 20 21  2  0
 21 22  1  0
 22 23  2  0
  7  2  1  0
 17  9  1  0
 23 18  1  0
 15 12  1  0
M  END
>  <cnnaffinity>  (382) 
-6.09565

>  <filename>  (382) 
Clc1ccccc1Cc1nc(C2CSC2)nn1-c1cccnc1

>  <enamine_id>  (382) 
PV-006760076390

$$$$

     RDKit          3D

 23 26  0  0  0  0  0  0  0  0999 V2000
    7.2425    5.4628   25.3191 C   0  0  0  0  0  0  0  0  0  0  0  0
    8.0024    5.4131   24.1470 C   0  0  0  0  0  0  0  0  0  0  0  0
    8.3925    4.1650   23.6660 C   0  0  0  0  0  0  0  0  0  0  0  0
    8.0076    3.0093   24.3653 C   0  0  0  0  0  0  0  0  0  0  0  0
    8.2961    1.6422   23.8071 C   0  0  0  0  0  0  0  0  0  0  0  0
    7.1831    1.2146   22.8077 C   0  0  0  0  0  0  0  0  0  0  0  0
    7.3841   -0.1581   22.2522 C   0  0  0  0  0  0  0  0  0  0  0  0
    7.8935   -1.1309   22.9773 N   0  0  0  0  0  0  0  0  0  0  0  0
    8.1546   -2.0967   22.0675 C   0  0  0  0  0  0  0  0  0  0  0  0
    8.9677   -3.2929   22.4221 C   0  0  0  0  0  0  0  0  0  0  0  0
    8.5436   -4.1938   23.6227 C   0  0  0  0  0  0  0  0  0  0  0  0
    9.9331   -3.9848   24.2741 C   0  0  0  0  0  0  0  0  0  0  0  0
   10.3100   -2.9729   23.1676 C   0  0  0  0  0  0  0  0  0  0  0  0
    7.7815   -1.8181   20.8366 N   0  0  0  0  0  0  0  0  0  0  0  0
    7.2346   -0.5778   20.9580 N   0  0  0  0  0  0  0  0  0  0  0  0
    6.5739    0.0462   19.8689 C   0  0  0  0  0  0  0  0  0  0  0  0
    5.3633    0.7208   20.0691 C   0  0  0  0  0  0  0  0  0  0  0  0
    4.7828    1.3661   18.9753 C   0  0  0  0  0  0  0  0  0  0  0  0
    5.4287    1.3167   17.7370 C   0  0  0  0  0  0  0  0  0  0  0  0
    6.5659    0.6302   17.5288 N   0  0  0  0  0  0  0  0  0  0  0  0
    7.1133   -0.0087   18.5685 C   0  0  0  0  0  0  0  0  0  0  0  0
    7.2774    3.0567   25.4912 N   0  0  0  0  0  0  0  0  0  0  0  0
    6.9152    4.2598   25.9488 C   0  0  0  0  0  0  0  0  0  0  0  0
  1  2  2  0
  2  3  1  0
  3  4  2  0
  4  5  1  0
  5  6  1  0
  6  7  1  0
  7  8  2  0
  8  9  1  0
  9 10  1  0
 10 11  1  0
 11 12  1  0
 12 13  1  0
  9 14  2  0
 14 15  1  0
 15 16  1  0
 16 17  2  0
 17 18  1  0
 18 19  2  0
 19 20  1  0
 20 21  2  0
  4 22  1  0
 22 23  2  0
 23  1  1  0
 15  7  1  0
 21 16  1  0
 13 10  1  0
M  END
>  <cnnaffinity>  (383) 
-6.09562

>  <filename>  (383) 
c1ccc(CCc2nc(C3CCC3)nn2-c2cccnc2)nc1

>  <enamine_id>  (383) 
PV-006739785914

$$$$

     RDKit          3D

 26 29  0  0  0  0  0  0  0  0999 V2000
    8.0909    2.4644   21.6445 C   0  0  0  0  0  0  0  0  0  0  0  0
    9.4710    1.8304   21.8163 C   0  0  2  0  0  0  0  0  0  0  0  0
    9.5922    0.5187   20.9666 C   0  0  0  0  0  0  0  0  0  0  0  0
    8.6522   -0.5877   21.3415 C   0  0  0  0  0  0  0  0  0  0  0  0
    8.9124   -1.5261   22.2220 N   0  0  0  0  0  0  0  0  0  0  0  0
    7.7033   -2.1154   22.4448 C   0  0  0  0  0  0  0  0  0  0  0  0
    7.4647   -3.1519   23.4849 C   0  0  0  0  0  0  0  0  0  0  0  0
    8.3901   -3.5499   24.3694 N   0  0  0  0  0  0  0  0  0  0  0  0
    7.7803   -4.4672   25.1119 N   0  0  0  0  0  0  0  0  0  0  0  0
    6.4950   -4.6931   24.7540 C   0  0  0  0  0  0  0  0  0  0  0  0
    6.2473   -3.8501   23.7036 C   0  0  0  0  0  0  0  0  0  0  0  0
    6.7257   -1.6426   21.6719 N   0  0  0  0  0  0  0  0  0  0  0  0
    7.3474   -0.6915   20.9312 N   0  0  0  0  0  0  0  0  0  0  0  0
    6.6487   -0.0220   19.8839 C   0  0  0  0  0  0  0  0  0  0  0  0
    5.4316    0.6160   20.1457 C   0  0  0  0  0  0  0  0  0  0  0  0
    4.8069    1.3004   19.0993 C   0  0  0  0  0  0  0  0  0  0  0  0
    5.4017    1.3008   17.8343 C   0  0  0  0  0  0  0  0  0  0  0  0
    6.5435    0.6494   17.5605 N   0  0  0  0  0  0  0  0  0  0  0  0
    7.1505    0.0077   18.5685 C   0  0  0  0  0  0  0  0  0  0  0  0
    9.8467    1.5973   23.2799 C   0  0  0  0  0  0  0  0  0  0  0  0
    8.9190    1.1982   24.2590 C   0  0  0  0  0  0  0  0  0  0  0  0
    9.3431    0.8195   25.5356 C   0  0  0  0  0  0  0  0  0  0  0  0
   10.7037    0.7821   25.8452 C   0  0  0  0  0  0  0  0  0  0  0  0
   11.6141    1.1713   24.8674 C   0  0  0  0  0  0  0  0  0  0  0  0
   12.9257    1.0490   25.1262 F   0  0  0  0  0  0  0  0  0  0  0  0
   11.2087    1.6374   23.6201 C   0  0  0  0  0  0  0  0  0  0  0  0
  2  1  1  1
  2  3  1  0
  3  4  1  0
  4  5  2  0
  5  6  1  0
  6  7  1  0
  7  8  2  0
  8  9  1  0
  9 10  1  0
 10 11  2  0
  6 12  2  0
 12 13  1  0
 13 14  1  0
 14 15  2  0
 15 16  1  0
 16 17  2  0
 17 18  1  0
 18 19  2  0
  2 20  1  0
 20 21  2  0
 21 22  1  0
 22 23  2  0
 23 24  1  0
 24 25  1  0
 24 26  2  0
 13  4  1  0
 19 14  1  0
 26 20  1  0
 11  7  1  0
M  END
>  <cnnaffinity>  (384) 
-6.09559

>  <filename>  (384) 
CC(Cc1nc(-c2cc[nH]n2)nn1-c1cccnc1)c1cccc(F)c1

>  <enamine_id>  (384) 
PV-006968669327

$$$$

     RDKit          3D

 28 31  0  0  0  0  0  0  0  0999 V2000
    9.0311    5.7311   25.0691 F   0  0  0  0  0  0  0  0  0  0  0  0
    8.2316    5.1834   24.1430 C   0  0  0  0  0  0  0  0  0  0  0  0
    6.9923    5.7593   23.9134 C   0  0  0  0  0  0  0  0  0  0  0  0
    6.1747    5.1737   22.9419 C   0  0  0  0  0  0  0  0  0  0  0  0
    6.6103    4.0529   22.2451 C   0  0  0  0  0  0  0  0  0  0  0  0
    5.7818    3.5241   21.3243 F   0  0  0  0  0  0  0  0  0  0  0  0
    7.8756    3.4623   22.4820 C   0  0  0  0  0  0  0  0  0  0  0  0
    8.2015    2.3539   21.7641 O   0  0  0  0  0  0  0  0  0  0  0  0
    9.4903    1.7580   21.9060 C   0  0  0  0  0  0  0  0  0  0  0  0
    9.5463    0.5463   20.9787 C   0  0  0  0  0  0  0  0  0  0  0  0
    8.6069   -0.5181   21.4013 C   0  0  0  0  0  0  0  0  0  0  0  0
    8.8494   -1.3762   22.3758 N   0  0  0  0  0  0  0  0  0  0  0  0
    7.6682   -2.0280   22.5048 C   0  0  0  0  0  0  0  0  0  0  0  0
    7.4155   -3.0930   23.5458 C   0  0  0  0  0  0  0  0  0  0  0  0
    6.2067   -2.7442   24.4784 C   0  0  0  0  0  0  0  0  0  0  0  0
    4.9398   -3.4746   24.0315 C   0  0  0  0  0  0  0  0  0  0  0  0
    5.0893   -4.8891   24.0637 O   0  0  0  0  0  0  0  0  0  0  0  0
    6.3854   -5.4113   23.7873 C   0  0  0  0  0  0  0  0  0  0  0  0
    7.2125   -4.4940   22.8881 C   0  0  0  0  0  0  0  0  0  0  0  0
    6.7265   -1.6442   21.6601 N   0  0  0  0  0  0  0  0  0  0  0  0
    7.3434   -0.6798   20.9294 N   0  0  0  0  0  0  0  0  0  0  0  0
    6.6507   -0.0000   19.8943 C   0  0  0  0  0  0  0  0  0  0  0  0
    5.4342    0.6301   20.1625 C   0  0  0  0  0  0  0  0  0  0  0  0
    4.8115    1.3007   19.1069 C   0  0  0  0  0  0  0  0  0  0  0  0
    5.3975    1.2918   17.8344 C   0  0  0  0  0  0  0  0  0  0  0  0
    6.5538    0.6667   17.5698 N   0  0  0  0  0  0  0  0  0  0  0  0
    7.1641    0.0480   18.5861 C   0  0  0  0  0  0  0  0  0  0  0  0
    8.6934    4.0561   23.4574 C   0  0  0  0  0  0  0  0  0  0  0  0
  1  2  1  0
  2  3  2  0
  3  4  1  0
  4  5  2  0
  5  6  1  0
  5  7  1  0
  7  8  1  0
  8  9  1  0
  9 10  1  0
 10 11  1  0
 11 12  2  0
 12 13  1  0
 13 14  1  0
 14 15  1  0
 15 16  1  0
 16 17  1  0
 17 18  1  0
 18 19  1  0
 13 20  2  0
 20 21  1  0
 21 22  1  0
 22 23  2  0
 23 24  1  0
 24 25  2  0
 25 26  1  0
 26 27  2  0
  7 28  2  0
 28  2  1  0
 21 11  1  0
 27 22  1  0
 19 14  1  0
M  END
>  <cnnaffinity>  (385) 
-6.09459

>  <filename>  (385) 
Fc1ccc(F)c(OCCc2nc(C3CCOCC3)nn2-c2cccnc2)c1

>  <enamine_id>  (385) 
PV-006753921227

$$$$

     RDKit          3D

 24 27  0  0  0  0  0  0  0  0999 V2000
    8.1632    2.4604   21.7306 C   0  0  0  0  0  0  0  0  0  0  0  0
    9.5223    1.7870   21.8951 C   0  0  2  0  0  0  0  0  0  0  0  0
    9.6052    0.5077   21.0148 C   0  0  0  0  0  0  0  0  0  0  0  0
    8.6442   -0.5778   21.3802 C   0  0  0  0  0  0  0  0  0  0  0  0
    8.8685   -1.4994   22.2967 N   0  0  0  0  0  0  0  0  0  0  0  0
    7.6627   -2.1116   22.4410 C   0  0  0  0  0  0  0  0  0  0  0  0
    7.4481   -3.1852   23.4841 C   0  0  0  0  0  0  0  0  0  0  0  0
    8.2545   -2.9862   24.7861 C   0  0  0  0  0  0  0  0  0  0  0  0
    7.5328   -3.8104   25.8659 C   0  0  0  0  0  0  0  0  0  0  0  0
    6.0845   -4.0101   25.3609 C   0  0  0  0  0  0  0  0  0  0  0  0
    6.0008   -3.2987   23.9997 C   0  0  0  0  0  0  0  0  0  0  0  0
    6.7229   -1.6642   21.6229 N   0  0  0  0  0  0  0  0  0  0  0  0
    7.3626   -0.6971   20.9106 N   0  0  0  0  0  0  0  0  0  0  0  0
    6.6645   -0.0120   19.8708 C   0  0  0  0  0  0  0  0  0  0  0  0
    5.4456    0.6261   20.1326 C   0  0  0  0  0  0  0  0  0  0  0  0
    4.8081    1.3096   19.0919 C   0  0  0  0  0  0  0  0  0  0  0  0
    5.4007    1.3104   17.8237 C   0  0  0  0  0  0  0  0  0  0  0  0
    6.5455    0.6652   17.5486 N   0  0  0  0  0  0  0  0  0  0  0  0
    7.1600    0.0222   18.5522 C   0  0  0  0  0  0  0  0  0  0  0  0
    9.8326    1.5276   23.3093 N   0  0  0  0  0  0  0  0  0  0  0  0
    8.9639    1.1232   24.3083 C   0  0  0  0  0  0  0  0  0  0  0  0
    9.7401    0.8770   25.4053 C   0  0  0  0  0  0  0  0  0  0  0  0
   11.0653    1.1021   25.1156 N   0  0  0  0  0  0  0  0  0  0  0  0
   11.0819    1.4750   23.8626 C   0  0  0  0  0  0  0  0  0  0  0  0
  2  1  1  1
  2  3  1  0
  3  4  1  0
  4  5  2  0
  5  6  1  0
  6  7  1  0
  7  8  1  0
  8  9  1  0
  9 10  1  0
 10 11  1  0
  6 12  2  0
 12 13  1  0
 13 14  1  0
 14 15  2  0
 15 16  1  0
 16 17  2  0
 17 18  1  0
 18 19  2  0
  2 20  1  0
 20 21  1  0
 21 22  2  0
 22 23  1  0
 23 24  2  0
 13  4  1  0
 19 14  1  0
 24 20  1  0
 11  7  1  0
M  END
>  <cnnaffinity>  (386) 
-6.09399

>  <filename>  (386) 
CC(Cc1nc(C2CCCC2)nn1-c1cccnc1)n1ccnc1

>  <enamine_id>  (386) 
PV-006860126190

$$$$

     RDKit          3D

 24 26  0  0  0  0  0  0  0  0999 V2000
    7.3940   -3.7038   24.7749 C   0  0  0  0  0  0  0  0  0  0  0  0
    7.5955   -4.3153   23.3890 C   0  0  0  0  0  0  0  0  0  0  0  0
    8.6321   -3.5448   22.5287 C   0  0  2  0  0  0  0  0  0  0  0  0
    9.9849   -3.3977   23.2579 C   0  0  0  0  0  0  0  0  0  0  0  0
    8.1065   -2.1964   22.1064 C   0  0  0  0  0  0  0  0  0  0  0  0
    7.6971   -1.9157   20.8819 N   0  0  0  0  0  0  0  0  0  0  0  0
    7.3232   -0.6092   20.9772 N   0  0  0  0  0  0  0  0  0  0  0  0
    6.6252    0.0270   19.9099 C   0  0  0  0  0  0  0  0  0  0  0  0
    5.4244    0.7120   20.1373 C   0  0  0  0  0  0  0  0  0  0  0  0
    4.8197    1.3379   19.0439 C   0  0  0  0  0  0  0  0  0  0  0  0
    5.4357    1.2736   17.7913 C   0  0  0  0  0  0  0  0  0  0  0  0
    6.5779    0.6006   17.5680 N   0  0  0  0  0  0  0  0  0  0  0  0
    7.1426   -0.0271   18.6056 C   0  0  0  0  0  0  0  0  0  0  0  0
    7.6563   -0.1405   22.2174 C   0  0  0  0  0  0  0  0  0  0  0  0
    8.0537    1.3006   22.4867 C   0  0  2  0  0  0  0  0  0  0  0  0
    6.9586    2.1732   22.2827 O   0  0  0  0  0  0  0  0  0  0  0  0
    9.2160    1.7454   21.5545 C   0  0  0  0  0  0  0  0  0  0  0  0
   10.5027    0.9783   21.7465 C   0  0  0  0  0  0  0  0  0  0  0  0
   10.7075   -0.2861   21.1620 C   0  0  0  0  0  0  0  0  0  0  0  0
   11.8983   -0.9695   21.3963 C   0  0  0  0  0  0  0  0  0  0  0  0
   12.8608   -0.3588   22.2072 C   0  0  0  0  0  0  0  0  0  0  0  0
   12.5776    0.8957   22.7430 C   0  0  0  0  0  0  0  0  0  0  0  0
   11.4280    1.5536   22.5315 N   0  0  0  0  0  0  0  0  0  0  0  0
    8.0503   -1.1544   22.9738 N   0  0  0  0  0  0  0  0  0  0  0  0
  1  2  1  0
  2  3  1  0
  3  4  1  1
  3  5  1  0
  5  6  2  0
  6  7  1  0
  7  8  1  0
  8  9  2  0
  9 10  1  0
 10 11  2  0
 11 12  1  0
 12 13  2  0
  7 14  1  0
 14 15  1  0
 15 16  1  6
 15 17  1  0
 17 18  1  0
 18 19  2  0
 19 20  1  0
 20 21  2  0
 21 22  1  0
 22 23  2  0
 14 24  2  0
 24  5  1  0
 13  8  1  0
 23 18  1  0
M  END
>  <cnnaffinity>  (387) 
-6.09326

>  <filename>  (387) 
CCC(C)c1nc(C(O)Cc2ccccn2)n(-c2cccnc2)n1

>  <enamine_id>  (387) 
PV-007093516117

$$$$

     RDKit          3D

 25 28  0  0  0  0  0  0  0  0999 V2000
    6.5100    6.4774   21.5519 O   0  0  0  0  0  0  0  0  0  0  0  0
    7.4235    5.8878   22.1036 C   0  0  0  0  0  0  0  0  0  0  0  0
    8.3666    6.4477   23.0615 C   0  0  0  0  0  0  0  0  0  0  0  0
    9.3427    5.6678   23.6188 C   0  0  0  0  0  0  0  0  0  0  0  0
    9.4577    4.2864   23.2534 C   0  0  0  0  0  0  0  0  0  0  0  0
    8.5926    3.7388   22.3393 C   0  0  0  0  0  0  0  0  0  0  0  0
    8.5928    2.3117   21.8731 C   0  0  0  0  0  0  0  0  0  0  0  0
    7.5813    1.4083   22.6320 C   0  0  0  0  0  0  0  0  0  0  0  0
    7.6189   -0.0275   22.2097 C   0  0  0  0  0  0  0  0  0  0  0  0
    8.0959   -1.0050   22.9526 N   0  0  0  0  0  0  0  0  0  0  0  0
    8.0392   -2.0885   22.1337 C   0  0  0  0  0  0  0  0  0  0  0  0
    8.5157   -3.4623   22.5456 C   0  0  0  0  0  0  0  0  0  0  0  0
    7.6597   -4.6361   22.0221 C   0  0  0  0  0  0  0  0  0  0  0  0
    8.0463   -5.8349   22.8992 C   0  0  0  0  0  0  0  0  0  0  0  0
    8.4828   -5.2418   24.2605 C   0  0  0  0  0  0  0  0  0  0  0  0
    8.6171   -3.7112   24.0689 C   0  0  0  0  0  0  0  0  0  0  0  0
    7.5759   -1.8339   20.9213 N   0  0  0  0  0  0  0  0  0  0  0  0
    7.2707   -0.5104   20.9789 N   0  0  0  0  0  0  0  0  0  0  0  0
    6.6056    0.1083   19.8808 C   0  0  0  0  0  0  0  0  0  0  0  0
    5.4024    0.8031   20.0619 C   0  0  0  0  0  0  0  0  0  0  0  0
    4.8222    1.4236   18.9502 C   0  0  0  0  0  0  0  0  0  0  0  0
    5.4598    1.3230   17.7092 C   0  0  0  0  0  0  0  0  0  0  0  0
    6.5900    0.6187   17.5219 N   0  0  0  0  0  0  0  0  0  0  0  0
    7.1389    0.0135   18.5807 C   0  0  0  0  0  0  0  0  0  0  0  0
    7.6033    4.5419   21.8281 N   0  0  0  0  0  0  0  0  0  0  0  0
  1  2  2  0
  2  3  1  0
  3  4  2  0
  4  5  1  0
  5  6  2  0
  6  7  1  0
  7  8  1  0
  8  9  1  0
  9 10  2  0
 10 11  1  0
 11 12  1  0
 12 13  1  0
 13 14  1  0
 14 15  1  0
 15 16  1  0
 11 17  2  0
 17 18  1  0
 18 19  1  0
 19 20  2  0
 20 21  1  0
 21 22  2  0
 22 23  1  0
 23 24  2  0
  6 25  1  0
 25  2  1  0
 18  9  1  0
 24 19  1  0
 16 12  1  0
M  END
>  <cnnaffinity>  (388) 
-6.09318

>  <filename>  (388) 
O=c1cccc(CCc2nc(C3CCCC3)nn2-c2cccnc2)[nH]1

>  <enamine_id>  (388) 
PV-007107260404

$$$$

     RDKit          3D

 24 27  0  0  0  0  0  0  0  0999 V2000
   12.7144    1.0815   23.4557 C   0  0  0  0  0  0  0  0  0  0  0  0
   11.3672    1.7569   23.5617 C   0  0  0  0  0  0  0  0  0  0  0  0
   11.1068    2.6015   24.6320 C   0  0  0  0  0  0  0  0  0  0  0  0
    9.8685    3.2378   24.8107 C   0  0  0  0  0  0  0  0  0  0  0  0
    8.8568    3.0192   23.8840 C   0  0  0  0  0  0  0  0  0  0  0  0
    9.0812    2.1781   22.7863 C   0  0  0  0  0  0  0  0  0  0  0  0
   10.3308    1.5613   22.6234 C   0  0  0  0  0  0  0  0  0  0  0  0
   10.6547    0.7396   21.5755 O   0  0  0  0  0  0  0  0  0  0  0  0
    9.6476    0.2536   20.7187 C   0  0  0  0  0  0  0  0  0  0  0  0
    8.6219   -0.6193   21.3618 C   0  0  0  0  0  0  0  0  0  0  0  0
    8.8392   -1.4705   22.3370 N   0  0  0  0  0  0  0  0  0  0  0  0
    7.6024   -1.9738   22.5856 C   0  0  0  0  0  0  0  0  0  0  0  0
    7.3643   -2.8784   23.7397 C   0  0  0  0  0  0  0  0  0  0  0  0
    8.4147   -4.0210   23.9269 C   0  0  0  0  0  0  0  0  0  0  0  0
    8.8350   -3.4195   25.2923 C   0  0  0  0  0  0  0  0  0  0  0  0
    7.7831   -2.2923   25.1354 C   0  0  0  0  0  0  0  0  0  0  0  0
    6.6550   -1.5362   21.7789 N   0  0  0  0  0  0  0  0  0  0  0  0
    7.3219   -0.6819   20.9569 N   0  0  0  0  0  0  0  0  0  0  0  0
    6.6530   -0.0017   19.9011 C   0  0  0  0  0  0  0  0  0  0  0  0
    5.4384    0.6451   20.1558 C   0  0  0  0  0  0  0  0  0  0  0  0
    4.8078    1.3134   19.1040 C   0  0  0  0  0  0  0  0  0  0  0  0
    5.3989    1.2968   17.8337 C   0  0  0  0  0  0  0  0  0  0  0  0
    6.5544    0.6658   17.5756 N   0  0  0  0  0  0  0  0  0  0  0  0
    7.1646    0.0409   18.5896 C   0  0  0  0  0  0  0  0  0  0  0  0
  1  2  1  0
  2  3  2  0
  3  4  1  0
  4  5  2  0
  5  6  1  0
  6  7  2  0
  7  8  1  0
  8  9  1  0
  9 10  1  0
 10 11  2  0
 11 12  1  0
 12 13  1  0
 13 14  1  0
 14 15  1  0
 15 16  1  0
 12 17  2  0
 17 18  1  0
 18 19  1  0
 19 20  2  0
 20 21  1  0
 21 22  2  0
 22 23  1  0
 23 24  2  0
  7  2  1  0
 18 10  1  0
 24 19  1  0
 16 13  1  0
M  END
>  <cnnaffinity>  (389) 
-6.09287

>  <filename>  (389) 
Cc1ccccc1OCc1nc(C2CCC2)nn1-c1cccnc1

>  <enamine_id>  (389) 
PV-006990969492

$$$$

     RDKit          3D

 25 28  0  0  0  0  0  0  0  0999 V2000
    7.1096    6.1631   25.9521 F   0  0  0  0  0  0  0  0  0  0  0  0
    7.5520    5.1598   25.1786 C   0  0  0  0  0  0  0  0  0  0  0  0
    7.6445    5.3413   23.8057 C   0  0  0  0  0  0  0  0  0  0  0  0
    8.1071    4.2879   23.0069 C   0  0  0  0  0  0  0  0  0  0  0  0
    8.4771    3.0521   23.5660 C   0  0  0  0  0  0  0  0  0  0  0  0
    8.9349    1.9881   22.8619 O   0  0  0  0  0  0  0  0  0  0  0  0
    9.0354    2.0129   21.4390 C   0  0  0  0  0  0  0  0  0  0  0  0
    9.5135    0.6291   20.9901 C   0  0  0  0  0  0  0  0  0  0  0  0
    8.6188   -0.4667   21.4421 C   0  0  0  0  0  0  0  0  0  0  0  0
    8.8676   -1.3191   22.4098 N   0  0  0  0  0  0  0  0  0  0  0  0
    7.6913   -1.9932   22.5291 C   0  0  0  0  0  0  0  0  0  0  0  0
    7.4573   -2.9861   23.6060 C   0  0  0  0  0  0  0  0  0  0  0  0
    6.3148   -2.7803   24.5660 C   0  0  0  0  0  0  0  0  0  0  0  0
    7.7278   -2.6061   25.0411 C   0  0  0  0  0  0  0  0  0  0  0  0
    6.7573   -1.6443   21.6649 N   0  0  0  0  0  0  0  0  0  0  0  0
    7.3608   -0.6615   20.9477 N   0  0  0  0  0  0  0  0  0  0  0  0
    6.6614    0.0125   19.9054 C   0  0  0  0  0  0  0  0  0  0  0  0
    5.4401    0.6437   20.1670 C   0  0  0  0  0  0  0  0  0  0  0  0
    4.8124    1.3099   19.1100 C   0  0  0  0  0  0  0  0  0  0  0  0
    5.4012    1.2958   17.8390 C   0  0  0  0  0  0  0  0  0  0  0  0
    6.5613    0.6741   17.5795 N   0  0  0  0  0  0  0  0  0  0  0  0
    7.1716    0.0548   18.5960 C   0  0  0  0  0  0  0  0  0  0  0  0
    8.3671    2.9125   24.9753 C   0  0  0  0  0  0  0  0  0  0  0  0
    8.8029    1.4252   25.7601 Cl  0  0  0  0  0  0  0  0  0  0  0  0
    7.9088    3.9572   25.7802 C   0  0  0  0  0  0  0  0  0  0  0  0
  1  2  1  0
  2  3  2  0
  3  4  1  0
  4  5  2  0
  5  6  1  0
  6  7  1  0
  7  8  1  0
  8  9  1  0
  9 10  2  0
 10 11  1  0
 11 12  1  0
 12 13  1  0
 13 14  1  0
 11 15  2  0
 15 16  1  0
 16 17  1  0
 17 18  2  0
 18 19  1  0
 19 20  2  0
 20 21  1  0
 21 22  2  0
  5 23  1  0
 23 24  1  0
 23 25  2  0
 25  2  1  0
 16  9  1  0
 22 17  1  0
 14 12  1  0
M  END
>  <cnnaffinity>  (390) 
-6.09272

>  <filename>  (390) 
Fc1ccc(OCCc2nc(C3CC3)nn2-c2cccnc2)c(Cl)c1

>  <enamine_id>  (390) 
PV-006718047639

$$$$

     RDKit          3D

 24 27  0  0  0  0  0  0  0  0999 V2000
    6.7838    1.4206   25.9627 C   0  0  0  0  0  0  0  0  0  0  0  0
    7.8311    1.7695   24.9624 C   0  0  0  0  0  0  0  0  0  0  0  0
    7.7138    1.7784   23.6127 C   0  0  0  0  0  0  0  0  0  0  0  0
    8.9244    2.1004   22.9198 C   0  0  0  0  0  0  0  0  0  0  0  0
    9.0462    2.0173   21.4193 C   0  0  0  0  0  0  0  0  0  0  0  0
    9.5211    0.6176   20.9400 C   0  0  0  0  0  0  0  0  0  0  0  0
    8.6431   -0.4984   21.4091 C   0  0  0  0  0  0  0  0  0  0  0  0
    8.8693   -1.3142   22.4264 N   0  0  0  0  0  0  0  0  0  0  0  0
    7.6699   -1.9225   22.5984 C   0  0  0  0  0  0  0  0  0  0  0  0
    7.3892   -2.8409   23.7438 C   0  0  0  0  0  0  0  0  0  0  0  0
    6.6004   -4.1206   23.3697 C   0  0  0  0  0  0  0  0  0  0  0  0
    5.2081   -3.6645   24.4573 S   0  0  0  0  0  0  0  0  0  0  0  0
    6.3537   -2.2792   24.7616 C   0  0  0  0  0  0  0  0  0  0  0  0
    6.7403   -1.5782   21.7300 N   0  0  0  0  0  0  0  0  0  0  0  0
    7.3711   -0.6693   20.9433 N   0  0  0  0  0  0  0  0  0  0  0  0
    6.6613    0.0016   19.9041 C   0  0  0  0  0  0  0  0  0  0  0  0
    5.4426    0.6397   20.1663 C   0  0  0  0  0  0  0  0  0  0  0  0
    4.8130    1.3090   19.1108 C   0  0  0  0  0  0  0  0  0  0  0  0
    5.4009    1.2952   17.8396 C   0  0  0  0  0  0  0  0  0  0  0  0
    6.5611    0.6736   17.5797 N   0  0  0  0  0  0  0  0  0  0  0  0
    7.1705    0.0525   18.5955 C   0  0  0  0  0  0  0  0  0  0  0  0
    9.9562    2.3240   23.7830 C   0  0  0  0  0  0  0  0  0  0  0  0
   11.3790    2.6347   23.4313 C   0  0  0  0  0  0  0  0  0  0  0  0
    9.4467    2.1671   25.4304 S   0  0  0  0  0  0  0  0  0  0  0  0
  1  2  1  0
  2  3  2  0
  3  4  1  0
  4  5  1  0
  5  6  1  0
  6  7  1  0
  7  8  2  0
  8  9  1  0
  9 10  1  0
 10 11  1  0
 11 12  1  0
 12 13  1  0
  9 14  2  0
 14 15  1  0
 15 16  1  0
 16 17  2  0
 17 18  1  0
 18 19  2  0
 19 20  1  0
 20 21  2  0
  4 22  2  0
 22 23  1  0
 22 24  1  0
 24  2  1  0
 15  7  1  0
 21 16  1  0
 13 10  1  0
M  END
>  <cnnaffinity>  (391) 
-6.09262

>  <filename>  (391) 
Cc1cc(CCc2nc(C3CSC3)nn2-c2cccnc2)c(C)s1

>  <enamine_id>  (391) 
PV-006888380644

$$$$

     RDKit          3D

 28 31  0  0  0  0  0  0  0  0999 V2000
    7.3791    4.6364   21.8603 C   0  0  0  0  0  0  0  0  0  0  0  0
    8.1469    4.4221   23.1488 C   0  0  0  0  0  0  0  0  0  0  0  0
    8.2967    5.5204   24.0093 C   0  0  0  0  0  0  0  0  0  0  0  0
    8.8384    5.3724   25.2866 C   0  0  0  0  0  0  0  0  0  0  0  0
    9.2698    4.1123   25.7073 C   0  0  0  0  0  0  0  0  0  0  0  0
    9.3009    3.0213   24.8347 C   0  0  0  0  0  0  0  0  0  0  0  0
    9.9627    1.7165   25.2267 C   0  0  0  0  0  0  0  0  0  0  0  0
    8.7306    3.1947   23.5443 C   0  0  0  0  0  0  0  0  0  0  0  0
    8.7293    2.0626   22.7729 O   0  0  0  0  0  0  0  0  0  0  0  0
    9.0037    2.0939   21.3836 C   0  0  0  0  0  0  0  0  0  0  0  0
    9.5273    0.7051   21.0243 C   0  0  0  0  0  0  0  0  0  0  0  0
    8.6146   -0.3845   21.4833 C   0  0  0  0  0  0  0  0  0  0  0  0
    8.8385   -1.2182   22.4824 N   0  0  0  0  0  0  0  0  0  0  0  0
    7.6680   -1.8989   22.5886 C   0  0  0  0  0  0  0  0  0  0  0  0
    7.4278   -2.8636   23.7284 C   0  0  0  0  0  0  0  0  0  0  0  0
    6.6356   -4.1463   23.3332 C   0  0  0  0  0  0  0  0  0  0  0  0
    5.1478   -3.9867   23.6543 C   0  0  0  0  0  0  0  0  0  0  0  0
    4.9068   -3.7771   25.0420 O   0  0  0  0  0  0  0  0  0  0  0  0
    5.9041   -3.0778   25.7845 C   0  0  0  0  0  0  0  0  0  0  0  0
    6.7134   -2.1187   24.9101 C   0  0  0  0  0  0  0  0  0  0  0  0
    6.7458   -1.5573   21.7050 N   0  0  0  0  0  0  0  0  0  0  0  0
    7.3717   -0.5963   20.9740 N   0  0  0  0  0  0  0  0  0  0  0  0
    6.6773    0.0332   19.9003 C   0  0  0  0  0  0  0  0  0  0  0  0
    5.4484    0.6505   20.1511 C   0  0  0  0  0  0  0  0  0  0  0  0
    4.8155    1.3122   19.0978 C   0  0  0  0  0  0  0  0  0  0  0  0
    5.4185    1.3061   17.8343 C   0  0  0  0  0  0  0  0  0  0  0  0
    6.5702    0.6670   17.5718 N   0  0  0  0  0  0  0  0  0  0  0  0
    7.1799    0.0409   18.5865 C   0  0  0  0  0  0  0  0  0  0  0  0
  1  2  1  0
  2  3  2  0
  3  4  1  0
  4  5  2  0
  5  6  1  0
  6  7  1  0
  6  8  2  0
  8  9  1  0
  9 10  1  0
 10 11  1  0
 11 12  1  0
 12 13  2  0
 13 14  1  0
 14 15  1  0
 15 16  1  0
 16 17  1  0
 17 18  1  0
 18 19  1  0
 19 20  1  0
 14 21  2  0
 21 22  1  0
 22 23  1  0
 23 24  2  0
 24 25  1  0
 25 26  2  0
 26 27  1  0
 27 28  2  0
  8  2  1  0
 22 12  1  0
 28 23  1  0
 20 15  1  0
M  END
>  <cnnaffinity>  (392) 
-6.09238

>  <filename>  (392) 
Cc1cccc(C)c1OCCc1nc(C2CCOCC2)nn1-c1cccnc1

>  <enamine_id>  (392) 
PV-006948643033

$$$$

     RDKit          3D

 24 27  0  0  0  0  0  0  0  0999 V2000
    4.8225    1.3017   19.1116 C   0  0  0  0  0  0  0  0  0  0  0  0
    5.4177    1.2950   17.8428 C   0  0  0  0  0  0  0  0  0  0  0  0
    6.5660    0.6560   17.5667 N   0  0  0  0  0  0  0  0  0  0  0  0
    7.1804    0.0291   18.5780 C   0  0  0  0  0  0  0  0  0  0  0  0
    6.6773    0.0062   19.8928 C   0  0  0  0  0  0  0  0  0  0  0  0
    7.3610   -0.6562   20.9494 N   0  0  0  0  0  0  0  0  0  0  0  0
    6.7140   -1.5985   21.6838 N   0  0  0  0  0  0  0  0  0  0  0  0
    7.6365   -1.9801   22.5419 C   0  0  0  0  0  0  0  0  0  0  0  0
    7.4080   -2.9820   23.6145 C   0  0  0  0  0  0  0  0  0  0  0  0
    6.7778   -4.3167   23.1381 C   0  0  0  0  0  0  0  0  0  0  0  0
    5.3050   -4.0592   24.1813 S   0  0  0  0  0  0  0  0  0  0  0  0
    6.2942   -2.5945   24.6298 C   0  0  0  0  0  0  0  0  0  0  0  0
    8.8327   -1.3515   22.4256 N   0  0  0  0  0  0  0  0  0  0  0  0
    8.6246   -0.4954   21.4397 C   0  0  0  0  0  0  0  0  0  0  0  0
    9.5227    0.5793   20.9394 C   0  0  0  0  0  0  0  0  0  0  0  0
    9.0103    1.9946   21.2688 C   0  0  0  0  0  0  0  0  0  0  0  0
    8.8411    2.2455   22.7824 C   0  0  0  0  0  0  0  0  0  0  0  0
   10.1629    2.1146   23.5037 C   0  0  0  0  0  0  0  0  0  0  0  0
   11.1739    3.0623   23.3021 C   0  0  0  0  0  0  0  0  0  0  0  0
   12.4463    2.8274   23.8163 C   0  0  0  0  0  0  0  0  0  0  0  0
   12.7624    1.7537   24.5521 N   0  0  0  0  0  0  0  0  0  0  0  0
   11.7856    0.8732   24.7890 C   0  0  0  0  0  0  0  0  0  0  0  0
   10.4903    1.0004   24.2804 C   0  0  0  0  0  0  0  0  0  0  0  0
    5.4553    0.6304   20.1589 C   0  0  0  0  0  0  0  0  0  0  0  0
  1  2  2  0
  2  3  1  0
  3  4  2  0
  4  5  1  0
  5  6  1  0
  6  7  1  0
  7  8  2  0
  8  9  1  0
  9 10  1  0
 10 11  1  0
 11 12  1  0
  8 13  1  0
 13 14  2  0
 14 15  1  0
 15 16  1  0
 16 17  1  0
 17 18  1  0
 18 19  2  0
 19 20  1  0
 20 21  2  0
 21 22  1  0
 22 23  2  0
  5 24  2  0
 24  1  1  0
 14  6  1  0
 23 18  1  0
 12  9  1  0
M  END
>  <cnnaffinity>  (393) 
-6.08883

>  <filename>  (393) 
c1cncc(-n2nc(C3CSC3)nc2CCCc2ccncc2)c1

>  <enamine_id>  (393) 
PV-006891099211

$$$$

     RDKit          3D

 23 26  0  0  0  0  0  0  0  0999 V2000
    7.7494    6.2180   21.5597 C   0  0  0  0  0  0  0  0  0  0  0  0
    8.9892    5.9940   22.1599 C   0  0  0  0  0  0  0  0  0  0  0  0
    9.1108    4.9195   23.0404 C   0  0  0  0  0  0  0  0  0  0  0  0
    7.9777    4.1447   23.3444 C   0  0  0  0  0  0  0  0  0  0  0  0
    8.0446    3.0227   24.3563 C   0  0  0  0  0  0  0  0  0  0  0  0
    8.4173    1.6673   23.7346 C   0  0  0  0  0  0  0  0  0  0  0  0
    7.3391    1.1549   22.7642 C   0  0  0  0  0  0  0  0  0  0  0  0
    7.6391   -0.1880   22.1933 C   0  0  0  0  0  0  0  0  0  0  0  0
    8.2516   -1.1449   22.8606 N   0  0  0  0  0  0  0  0  0  0  0  0
    8.2643   -2.1774   21.9880 C   0  0  0  0  0  0  0  0  0  0  0  0
    8.8920   -3.4699   22.3485 C   0  0  0  0  0  0  0  0  0  0  0  0
    8.2135   -4.7841   22.0480 C   0  0  0  0  0  0  0  0  0  0  0  0
    8.3899   -4.3495   23.4714 C   0  0  0  0  0  0  0  0  0  0  0  0
    7.7284   -1.9195   20.8104 N   0  0  0  0  0  0  0  0  0  0  0  0
    7.2897   -0.6430   20.9490 N   0  0  0  0  0  0  0  0  0  0  0  0
    6.5976    0.0039   19.8832 C   0  0  0  0  0  0  0  0  0  0  0  0
    5.3881    0.6751   20.0975 C   0  0  0  0  0  0  0  0  0  0  0  0
    4.7939    1.3310   19.0161 C   0  0  0  0  0  0  0  0  0  0  0  0
    5.4289    1.3025   17.7705 C   0  0  0  0  0  0  0  0  0  0  0  0
    6.5713    0.6281   17.5489 N   0  0  0  0  0  0  0  0  0  0  0  0
    7.1285   -0.0189   18.5785 C   0  0  0  0  0  0  0  0  0  0  0  0
    6.7886    4.3562   22.7577 N   0  0  0  0  0  0  0  0  0  0  0  0
    6.6964    5.3546   21.8685 C   0  0  0  0  0  0  0  0  0  0  0  0
  1  2  2  0
  2  3  1  0
  3  4  2  0
  4  5  1  0
  5  6  1  0
  6  7  1  0
  7  8  1  0
  8  9  2  0
  9 10  1  0
 10 11  1  0
 11 12  1  0
 12 13  1  0
 10 14  2  0
 14 15  1  0
 15 16  1  0
 16 17  2  0
 17 18  1  0
 18 19  2  0
 19 20  1  0
 20 21  2  0
  4 22  1  0
 22 23  2  0
 23  1  1  0
 15  8  1  0
 21 16  1  0
 13 11  1  0
M  END
>  <cnnaffinity>  (394) 
-6.08743

>  <filename>  (394) 
c1ccc(CCCc2nc(C3CC3)nn2-c2cccnc2)nc1

>  <enamine_id>  (394) 
PV-006811248859

$$$$

     RDKit          3D

 27 30  0  0  0  0  0  0  0  0999 V2000
    7.1732   -5.3287   27.3998 F   0  0  0  0  0  0  0  0  0  0  0  0
    7.5744   -4.2672   26.6992 C   0  0  0  0  0  0  0  0  0  0  0  0
    8.6125   -4.4360   25.7804 C   0  0  0  0  0  0  0  0  0  0  0  0
    9.0152   -3.3159   25.0623 C   0  0  0  0  0  0  0  0  0  0  0  0
    8.3677   -2.0901   25.2914 C   0  0  0  0  0  0  0  0  0  0  0  0
    8.7349   -0.9161   24.5752 N   0  0  0  0  0  0  0  0  0  0  0  0
    8.8487    0.2912   25.1934 N   0  0  0  0  0  0  0  0  0  0  0  0
    9.2533    1.0910   24.2253 C   0  0  0  0  0  0  0  0  0  0  0  0
    9.5276    2.5603   24.4063 C   0  0  1  0  0  0  0  0  0  0  0  0
   11.0179    2.9128   24.1500 C   0  0  0  0  0  0  0  0  0  0  0  0
   11.2724    4.4022   24.1175 C   0  0  0  0  0  0  0  0  0  0  0  0
   10.3075    5.3073   23.9343 C   0  0  0  0  0  0  0  0  0  0  0  0
    8.8469    4.9387   23.8152 C   0  0  0  0  0  0  0  0  0  0  0  0
    8.6244    3.4456   23.5131 C   0  0  0  0  0  0  0  0  0  0  0  0
    9.3891    0.4883   23.0144 N   0  0  0  0  0  0  0  0  0  0  0  0
    9.0214   -0.7513   23.2503 C   0  0  0  0  0  0  0  0  0  0  0  0
    8.9335   -1.8144   22.2122 C   0  0  0  0  0  0  0  0  0  0  0  0
    8.5481   -1.2667   20.8471 C   0  0  0  0  0  0  0  0  0  0  0  0
    7.2658   -0.6439   20.9726 O   0  0  0  0  0  0  0  0  0  0  0  0
    6.6852   -0.0081   19.9169 C   0  0  0  0  0  0  0  0  0  0  0  0
    5.4584    0.6399   20.1693 C   0  0  0  0  0  0  0  0  0  0  0  0
    4.8220    1.2995   19.1150 C   0  0  0  0  0  0  0  0  0  0  0  0
    5.4053    1.2892   17.8406 C   0  0  0  0  0  0  0  0  0  0  0  0
    6.5677    0.6732   17.5854 N   0  0  0  0  0  0  0  0  0  0  0  0
    7.1906    0.0522   18.6016 C   0  0  0  0  0  0  0  0  0  0  0  0
    7.3469   -2.0562   26.2500 C   0  0  0  0  0  0  0  0  0  0  0  0
    6.9499   -3.1343   26.9379 N   0  0  0  0  0  0  0  0  0  0  0  0
  1  2  1  0
  2  3  2  0
  3  4  1  0
  4  5  2  0
  5  6  1  0
  6  7  1  0
  7  8  2  0
  9  8  1  6
  9 10  1  0
 10 11  1  0
 11 12  2  0
 12 13  1  0
 13 14  1  0
  8 15  1  0
 15 16  2  0
 16 17  1  0
 17 18  1  0
 18 19  1  0
 19 20  1  0
 20 21  2  0
 21 22  1  0
 22 23  2  0
 23 24  1  0
 24 25  2  0
  5 26  1  0
 26 27  2  0
 27  2  1  0
 16  6  1  0
 25 20  1  0
 14  9  1  0
M  END
>  <cnnaffinity>  (395) 
-6.08557

>  <filename>  (395) 
Fc1ccc(-n2nc(C3CC=CCC3)nc2CCOc2cccnc2)cn1

>  <enamine_id>  (395) 
PV-004852608700

$$$$

     RDKit          3D

 24 27  0  0  0  0  0  0  0  0999 V2000
    8.9097    2.6695   22.1997 C   0  0  0  0  0  0  0  0  0  0  0  0
   10.2384    1.9812   22.4384 C   0  0  0  0  0  0  0  0  0  0  0  0
   11.1170    2.4787   23.4143 C   0  0  0  0  0  0  0  0  0  0  0  0
   12.3328    1.8412   23.6728 C   0  0  0  0  0  0  0  0  0  0  0  0
   12.6747    0.6813   22.9803 C   0  0  0  0  0  0  0  0  0  0  0  0
   11.7879    0.1215   22.0550 C   0  0  0  0  0  0  0  0  0  0  0  0
   12.1016   -1.2312   21.4682 C   0  0  0  0  0  0  0  0  0  0  0  0
   10.5958    0.8112   21.7320 C   0  0  0  0  0  0  0  0  0  0  0  0
    9.6152    0.2027   20.7426 C   0  0  0  0  0  0  0  0  0  0  0  0
    8.5474   -0.6175   21.3979 C   0  0  0  0  0  0  0  0  0  0  0  0
    8.7080   -1.4059   22.4444 N   0  0  0  0  0  0  0  0  0  0  0  0
    7.4815   -1.9640   22.6100 C   0  0  0  0  0  0  0  0  0  0  0  0
    7.1993   -2.9709   23.6749 C   0  0  0  0  0  0  0  0  0  0  0  0
    7.4212   -4.4072   23.2115 C   0  0  0  0  0  0  0  0  0  0  0  0
    7.9034   -5.4200   24.1997 C   0  0  0  0  0  0  0  0  0  0  0  0
    8.8176   -4.9526   23.1067 C   0  0  0  0  0  0  0  0  0  0  0  0
    6.5803   -1.5835   21.7299 N   0  0  0  0  0  0  0  0  0  0  0  0
    7.2688   -0.7382   20.9215 N   0  0  0  0  0  0  0  0  0  0  0  0
    6.5959   -0.0498   19.8721 C   0  0  0  0  0  0  0  0  0  0  0  0
    5.3918    0.6196   20.1281 C   0  0  0  0  0  0  0  0  0  0  0  0
    4.7992    1.3200   19.0738 C   0  0  0  0  0  0  0  0  0  0  0  0
    5.4040    1.3148   17.8118 C   0  0  0  0  0  0  0  0  0  0  0  0
    6.5427    0.6555   17.5536 N   0  0  0  0  0  0  0  0  0  0  0  0
    7.1158   -0.0067   18.5662 C   0  0  0  0  0  0  0  0  0  0  0  0
  1  2  1  0
  2  3  2  0
  3  4  1  0
  4  5  2  0
  5  6  1  0
  6  7  1  0
  6  8  2  0
  8  9  1  0
  9 10  1  0
 10 11  2  0
 11 12  1  0
 12 13  1  0
 13 14  1  0
 14 15  1  0
 15 16  1  0
 12 17  2  0
 17 18  1  0
 18 19  1  0
 19 20  2  0
 20 21  1  0
 21 22  2  0
 22 23  1  0
 23 24  2  0
  8  2  1  0
 18 10  1  0
 24 19  1  0
 16 14  1  0
M  END
>  <cnnaffinity>  (396) 
-6.08494

>  <filename>  (396) 
Cc1cccc(C)c1Cc1nc(CC2CC2)nn1-c1cccnc1

>  <enamine_id>  (396) 
PV-007036467301

$$$$

     RDKit          3D

 26 29  0  0  0  0  0  0  0  0999 V2000
    4.5600   -5.1972   25.4655 F   0  0  0  0  0  0  0  0  0  0  0  0
    4.7674   -3.9622   24.8989 C   0  0  0  0  0  0  0  0  0  0  0  0
    3.5710   -3.2973   24.9946 F   0  0  0  0  0  0  0  0  0  0  0  0
    5.1082   -4.1363   23.4130 C   0  0  0  0  0  0  0  0  0  0  0  0
    6.6202   -4.2810   23.2001 C   0  0  0  0  0  0  0  0  0  0  0  0
    7.3654   -2.9921   23.6601 C   0  0  0  0  0  0  0  0  0  0  0  0
    7.6070   -2.0211   22.5324 C   0  0  0  0  0  0  0  0  0  0  0  0
    6.6758   -1.5976   21.6956 N   0  0  0  0  0  0  0  0  0  0  0  0
    7.3382   -0.6686   20.9510 N   0  0  0  0  0  0  0  0  0  0  0  0
    6.6622   -0.0131   19.8872 C   0  0  0  0  0  0  0  0  0  0  0  0
    5.4381    0.6081   20.1390 C   0  0  0  0  0  0  0  0  0  0  0  0
    4.8258    1.3061   19.0952 C   0  0  0  0  0  0  0  0  0  0  0  0
    5.4278    1.3129   17.8309 C   0  0  0  0  0  0  0  0  0  0  0  0
    6.5726    0.6650   17.5658 N   0  0  0  0  0  0  0  0  0  0  0  0
    7.1697    0.0159   18.5744 C   0  0  0  0  0  0  0  0  0  0  0  0
    8.6164   -0.5547   21.4110 C   0  0  0  0  0  0  0  0  0  0  0  0
    9.6180    0.5003   21.0549 C   0  0  0  0  0  0  0  0  0  0  0  0
    9.7174    1.6534   22.0917 C   0  0  0  0  0  0  0  0  0  0  0  0
    8.4534    2.4406   22.2608 C   0  0  0  0  0  0  0  0  0  0  0  0
    8.2181    3.6517   21.8342 N   0  0  0  0  0  0  0  0  0  0  0  0
    6.9092    3.9528   22.1217 N   0  0  0  0  0  0  0  0  0  0  0  0
    6.4036    2.9247   22.7336 C   0  0  0  0  0  0  0  0  0  0  0  0
    7.3292    1.9372   22.8443 N   0  0  0  0  0  0  0  0  0  0  0  0
    8.8126   -1.4232   22.3856 N   0  0  0  0  0  0  0  0  0  0  0  0
    6.6510   -2.2562   24.8493 C   0  0  0  0  0  0  0  0  0  0  0  0
    5.8412   -3.2269   25.7183 C   0  0  0  0  0  0  0  0  0  0  0  0
  1  2  1  0
  2  3  1  0
  2  4  1  0
  4  5  1  0
  5  6  1  0
  6  7  1  0
  7  8  2  0
  8  9  1  0
  9 10  1  0
 10 11  2  0
 11 12  1  0
 12 13  2  0
 13 14  1  0
 14 15  2  0
  9 16  1  0
 16 17  1  0
 17 18  1  0
 18 19  1  0
 19 20  2  0
 20 21  1  0
 21 22  2  0
 22 23  1  0
 16 24  2  0
  6 25  1  0
 25 26  1  0
 26  2  1  0
 24  7  1  0
 15 10  1  0
 23 19  1  0
M  END
>  <cnnaffinity>  (397) 
-6.08476

>  <filename>  (397) 
FC1(F)CCC(c2nc(CCc3nnc[nH]3)n(-c3cccnc3)n2)CC1

>  <enamine_id>  (397) 
PV-007150166281

$$$$

     RDKit          3D

 24 27  0  0  0  0  0  0  0  0999 V2000
   12.6465    1.6028   24.4020 C   0  0  0  0  0  0  0  0  0  0  0  0
   11.6058    0.7329   24.7275 C   0  0  0  0  0  0  0  0  0  0  0  0
   10.3094    1.0104   24.2847 C   0  0  0  0  0  0  0  0  0  0  0  0
   10.0372    2.1444   23.5037 C   0  0  0  0  0  0  0  0  0  0  0  0
    8.7358    2.2806   22.7352 C   0  0  0  0  0  0  0  0  0  0  0  0
    8.9548    2.0024   21.2285 C   0  0  0  0  0  0  0  0  0  0  0  0
    9.5040    0.5883   20.9323 C   0  0  0  0  0  0  0  0  0  0  0  0
    8.6154   -0.5100   21.4168 C   0  0  0  0  0  0  0  0  0  0  0  0
    8.8285   -1.3624   22.4057 N   0  0  0  0  0  0  0  0  0  0  0  0
    7.6323   -1.9890   22.5397 C   0  0  0  0  0  0  0  0  0  0  0  0
    7.4017   -2.9945   23.6160 C   0  0  0  0  0  0  0  0  0  0  0  0
    6.7618   -4.3256   23.1413 C   0  0  0  0  0  0  0  0  0  0  0  0
    5.2875   -4.0791   24.1891 S   0  0  0  0  0  0  0  0  0  0  0  0
    6.2836   -2.6124   24.6277 C   0  0  0  0  0  0  0  0  0  0  0  0
    6.7046   -1.6062   21.6876 N   0  0  0  0  0  0  0  0  0  0  0  0
    7.3513   -0.6778   20.9343 N   0  0  0  0  0  0  0  0  0  0  0  0
    6.6630   -0.0134   19.8853 C   0  0  0  0  0  0  0  0  0  0  0  0
    5.4474    0.6221   20.1486 C   0  0  0  0  0  0  0  0  0  0  0  0
    4.8232    1.3059   19.1023 C   0  0  0  0  0  0  0  0  0  0  0  0
    5.4173    1.3092   17.8341 C   0  0  0  0  0  0  0  0  0  0  0  0
    6.5664    0.6706   17.5676 N   0  0  0  0  0  0  0  0  0  0  0  0
    7.1665    0.0254   18.5746 C   0  0  0  0  0  0  0  0  0  0  0  0
   11.0775    3.0679   23.2878 C   0  0  0  0  0  0  0  0  0  0  0  0
   12.3785    2.7873   23.7138 C   0  0  0  0  0  0  0  0  0  0  0  0
  1  2  2  0
  2  3  1  0
  3  4  2  0
  4  5  1  0
  5  6  1  0
  6  7  1  0
  7  8  1  0
  8  9  2  0
  9 10  1  0
 10 11  1  0
 11 12  1  0
 12 13  1  0
 13 14  1  0
 10 15  2  0
 15 16  1  0
 16 17  1  0
 17 18  2  0
 18 19  1  0
 19 20  2  0
 20 21  1  0
 21 22  2  0
  4 23  1  0
 23 24  2  0
 24  1  1  0
 16  8  1  0
 22 17  1  0
 14 11  1  0
M  END
>  <cnnaffinity>  (398) 
-6.08251

>  <filename>  (398) 
c1ccc(CCCc2nc(C3CSC3)nn2-c2cccnc2)cc1

>  <enamine_id>  (398) 
PV-006746490432

$$$$

     RDKit          3D

 23 26  0  0  0  0  0  0  0  0999 V2000
    5.3224    1.1421   24.3179 C   0  0  0  0  0  0  0  0  0  0  0  0
    6.7084    1.4216   24.8008 C   0  0  0  0  0  0  0  0  0  0  0  0
    7.8622    1.6105   24.0968 C   0  0  0  0  0  0  0  0  0  0  0  0
    8.0372    1.4666   22.6211 C   0  0  0  0  0  0  0  0  0  0  0  0
    7.8667    0.0328   22.2404 C   0  0  0  0  0  0  0  0  0  0  0  0
    8.3589   -0.9628   22.9476 N   0  0  0  0  0  0  0  0  0  0  0  0
    8.1080   -2.0477   22.1815 C   0  0  0  0  0  0  0  0  0  0  0  0
    8.5843   -3.4167   22.5653 C   0  0  0  0  0  0  0  0  0  0  0  0
    7.7736   -4.5494   21.9126 C   0  0  0  0  0  0  0  0  0  0  0  0
    8.1355   -5.7956   22.7223 C   0  0  0  0  0  0  0  0  0  0  0  0
    8.4308   -5.2847   24.1534 C   0  0  0  0  0  0  0  0  0  0  0  0
    8.5589   -3.7440   24.0740 C   0  0  0  0  0  0  0  0  0  0  0  0
    7.4931   -1.7906   21.0409 N   0  0  0  0  0  0  0  0  0  0  0  0
    7.2893   -0.4492   21.1006 N   0  0  0  0  0  0  0  0  0  0  0  0
    6.6191    0.1858   20.0156 C   0  0  0  0  0  0  0  0  0  0  0  0
    5.4356    0.9162   20.1744 C   0  0  0  0  0  0  0  0  0  0  0  0
    4.8440    1.4638   19.0290 C   0  0  0  0  0  0  0  0  0  0  0  0
    5.4542    1.2734   17.7873 C   0  0  0  0  0  0  0  0  0  0  0  0
    6.5814    0.5562   17.6297 N   0  0  0  0  0  0  0  0  0  0  0  0
    7.1363    0.0196   18.7193 C   0  0  0  0  0  0  0  0  0  0  0  0
    8.9236    1.8305   24.9365 N   0  0  0  0  0  0  0  0  0  0  0  0
    8.4252    1.7831   26.1435 C   0  0  0  0  0  0  0  0  0  0  0  0
    7.0873    1.5312   26.1229 N   0  0  0  0  0  0  0  0  0  0  0  0
  1  2  1  0
  2  3  2  0
  3  4  1  0
  4  5  1  0
  5  6  2  0
  6  7  1  0
  7  8  1  0
  8  9  1  0
  9 10  1  0
 10 11  1  0
 11 12  1  0
  7 13  2  0
 13 14  1  0
 14 15  1  0
 15 16  2  0
 16 17  1  0
 17 18  2  0
 18 19  1  0
 19 20  2  0
  3 21  1  0
 21 22  2  0
 22 23  1  0
 23  2  1  0
 14  5  1  0
 20 15  1  0
 12  8  1  0
M  END
>  <cnnaffinity>  (399) 
-6.08154

>  <filename>  (399) 
Cc1[nH]cnc1Cc1nc(C2CCCC2)nn1-c1cccnc1

>  <enamine_id>  (399) 
PV-007123375181

$$$$

     RDKit          3D

 27 30  0  0  0  0  0  0  0  0999 V2000
   12.7579    1.0174   24.6036 C   0  0  0  0  0  0  0  0  0  0  0  0
   11.2840    1.2716   24.7834 C   0  0  0  0  0  0  0  0  0  0  0  0
   10.5922    0.9854   25.9610 C   0  0  0  0  0  0  0  0  0  0  0  0
    9.2049    1.1562   26.0404 C   0  0  0  0  0  0  0  0  0  0  0  0
    8.4795    1.5496   24.9182 C   0  0  0  0  0  0  0  0  0  0  0  0
    9.1717    1.8396   23.7322 C   0  0  0  0  0  0  0  0  0  0  0  0
    8.4189    2.1275   22.6357 O   0  0  0  0  0  0  0  0  0  0  0  0
    9.0022    2.0308   21.3400 C   0  0  0  0  0  0  0  0  0  0  0  0
    9.5315    0.6259   20.9787 C   0  0  0  0  0  0  0  0  0  0  0  0
    8.6298   -0.4610   21.4426 C   0  0  0  0  0  0  0  0  0  0  0  0
    8.8585   -1.3029   22.4297 N   0  0  0  0  0  0  0  0  0  0  0  0
    7.6623   -1.9273   22.5857 C   0  0  0  0  0  0  0  0  0  0  0  0
    7.4019   -2.8585   23.7435 C   0  0  0  0  0  0  0  0  0  0  0  0
    6.7233   -2.1008   24.9222 C   0  0  0  0  0  0  0  0  0  0  0  0
    6.3481   -3.0619   26.0502 C   0  0  0  0  0  0  0  0  0  0  0  0
    5.5468   -4.1320   25.5795 O   0  0  0  0  0  0  0  0  0  0  0  0
    6.1922   -4.9154   24.5911 C   0  0  0  0  0  0  0  0  0  0  0  0
    6.5522   -4.0906   23.3535 C   0  0  0  0  0  0  0  0  0  0  0  0
    6.7282   -1.5546   21.7285 N   0  0  0  0  0  0  0  0  0  0  0  0
    7.3634   -0.6253   20.9681 N   0  0  0  0  0  0  0  0  0  0  0  0
    6.6734    0.0204   19.9051 C   0  0  0  0  0  0  0  0  0  0  0  0
    5.4495    0.6472   20.1565 C   0  0  0  0  0  0  0  0  0  0  0  0
    4.8196    1.3099   19.1017 C   0  0  0  0  0  0  0  0  0  0  0  0
    5.4164    1.3003   17.8342 C   0  0  0  0  0  0  0  0  0  0  0  0
    6.5715    0.6682   17.5774 N   0  0  0  0  0  0  0  0  0  0  0  0
    7.1806    0.0444   18.5932 C   0  0  0  0  0  0  0  0  0  0  0  0
   10.5665    1.8015   23.7077 C   0  0  0  0  0  0  0  0  0  0  0  0
  1  2  1  0
  2  3  2  0
  3  4  1  0
  4  5  2  0
  5  6  1  0
  6  7  1  0
  7  8  1  0
  8  9  1  0
  9 10  1  0
 10 11  2  0
 11 12  1  0
 12 13  1  0
 13 14  1  0
 14 15  1  0
 15 16  1  0
 16 17  1  0
 17 18  1  0
 12 19  2  0
 19 20  1  0
 20 21  1  0
 21 22  2  0
 22 23  1  0
 23 24  2  0
 24 25  1  0
 25 26  2  0
  6 27  2  0
 27  2  1  0
 20 10  1  0
 26 21  1  0
 18 13  1  0
M  END
>  <cnnaffinity>  (400) 
-6.08104

>  <filename>  (400) 
Cc1cccc(OCCc2nc(C3CCOCC3)nn2-c2cccnc2)c1

>  <enamine_id>  (400) 
PV-006841972812

$$$$

     RDKit          3D

 26 29  0  0  0  0  0  0  0  0999 V2000
    4.8616    1.3048   19.0303 C   0  0  0  0  0  0  0  0  0  0  0  0
    5.4658    1.2827   17.7730 C   0  0  0  0  0  0  0  0  0  0  0  0
    6.6290    0.6467   17.5360 N   0  0  0  0  0  0  0  0  0  0  0  0
    7.2288    0.0320   18.5623 C   0  0  0  0  0  0  0  0  0  0  0  0
    6.7096    0.0070   19.8812 C   0  0  0  0  0  0  0  0  0  0  0  0
    7.4458   -0.6318   20.8353 O   0  0  0  0  0  0  0  0  0  0  0  0
    6.9297   -0.7284   22.1654 C   0  0  0  0  0  0  0  0  0  0  0  0
    7.9688   -1.4642   23.0086 C   0  0  0  0  0  0  0  0  0  0  0  0
    7.5511   -1.6224   24.4396 C   0  0  0  0  0  0  0  0  0  0  0  0
    6.8517   -0.7454   25.1486 N   0  0  0  0  0  0  0  0  0  0  0  0
    6.6341   -1.3873   26.3279 C   0  0  0  0  0  0  0  0  0  0  0  0
    5.8311   -0.8905   27.4993 C   0  0  0  0  0  0  0  0  0  0  0  0
    6.2389    0.5523   27.9025 C   0  0  0  0  0  0  0  0  0  0  0  0
    5.3292    1.5793   27.2232 C   0  0  0  0  0  0  0  0  0  0  0  0
    3.8574    1.4158   27.6750 C   0  0  0  0  0  0  0  0  0  0  0  0
    3.4779   -0.0425   28.0429 C   0  0  0  0  0  0  0  0  0  0  0  0
    4.2961   -1.0595   27.2371 C   0  0  0  0  0  0  0  0  0  0  0  0
    7.1572   -2.5859   26.3958 N   0  0  0  0  0  0  0  0  0  0  0  0
    7.7867   -2.7312   25.2059 N   0  0  0  0  0  0  0  0  0  0  0  0
    8.4732   -3.9509   25.0095 C   0  0  0  0  0  0  0  0  0  0  0  0
    9.8350   -4.0082   24.7074 C   0  0  0  0  0  0  0  0  0  0  0  0
   10.4357   -5.2710   24.6788 C   0  0  0  0  0  0  0  0  0  0  0  0
    9.6429   -6.4045   24.9066 C   0  0  0  0  0  0  0  0  0  0  0  0
    8.3369   -6.3431   25.2100 N   0  0  0  0  0  0  0  0  0  0  0  0
    7.7852   -5.1394   25.3176 C   0  0  0  0  0  0  0  0  0  0  0  0
    5.4857    0.6525   20.1033 C   0  0  0  0  0  0  0  0  0  0  0  0
  1  2  2  0
  2  3  1  0
  3  4  2  0
  4  5  1  0
  5  6  1  0
  6  7  1  0
  7  8  1  0
  8  9  1  0
  9 10  2  0
 10 11  1  0
 11 12  1  0
 12 13  1  0
 13 14  1  0
 14 15  1  0
 15 16  1  0
 16 17  1  0
 11 18  2  0
 18 19  1  0
 19 20  1  0
 20 21  2  0
 21 22  1  0
 22 23  2  0
 23 24  1  0
 24 25  2  0
  5 26  2  0
 26  1  1  0
 19  9  1  0
 25 20  1  0
 17 12  1  0
M  END
>  <cnnaffinity>  (401) 
-6.08086

>  <filename>  (401) 
c1cncc(OCCc2nc(C3CCCCC3)nn2-c2cccnc2)c1

>  <enamine_id>  (401) 
PV-006867362827

$$$$

     RDKit          3D

 27 30  0  0  0  0  0  0  0  0999 V2000
    1.2430   -2.7363   28.2197 C   0  0  0  0  0  0  0  0  0  0  0  0
    2.3769   -2.7827   27.1898 C   0  0  2  0  0  0  0  0  0  0  0  0
    3.6388   -3.4650   27.7517 C   0  0  0  0  0  0  0  0  0  0  0  0
    4.7964   -3.5035   26.7409 C   0  0  0  0  0  0  0  0  0  0  0  0
    5.1482   -2.0862   26.2207 C   0  0  1  0  0  0  0  0  0  0  0  0
    6.2702   -2.1093   25.2135 C   0  0  0  0  0  0  0  0  0  0  0  0
    7.3317   -1.3316   25.2901 N   0  0  0  0  0  0  0  0  0  0  0  0
    8.0537   -1.6858   24.1891 N   0  0  0  0  0  0  0  0  0  0  0  0
    9.3021   -1.0877   23.9200 C   0  0  0  0  0  0  0  0  0  0  0  0
   10.4366   -1.6139   23.3187 C   0  0  0  0  0  0  0  0  0  0  0  0
   11.3173   -0.5843   23.2206 N   0  0  0  0  0  0  0  0  0  0  0  0
   12.6234   -0.5112   22.6029 C   0  0  0  0  0  0  0  0  0  0  0  0
   10.8474    0.5467   23.7524 N   0  0  0  0  0  0  0  0  0  0  0  0
    9.6337    0.2621   24.1805 C   0  0  0  0  0  0  0  0  0  0  0  0
    7.3413   -2.6060   23.4734 C   0  0  0  0  0  0  0  0  0  0  0  0
    7.6202   -3.0510   22.0745 C   0  0  0  0  0  0  0  0  0  0  0  0
    6.8658   -2.1920   21.0390 C   0  0  0  0  0  0  0  0  0  0  0  0
    7.3662   -0.7428   20.9831 C   0  0  0  0  0  0  0  0  0  0  0  0
    6.6745    0.0444   19.8930 C   0  0  0  0  0  0  0  0  0  0  0  0
    5.4477    0.6860   20.1279 C   0  0  0  0  0  0  0  0  0  0  0  0
    4.7973    1.3302   19.0735 C   0  0  0  0  0  0  0  0  0  0  0  0
    5.3921    1.3082   17.8091 C   0  0  0  0  0  0  0  0  0  0  0  0
    6.5541    0.6892   17.5502 N   0  0  0  0  0  0  0  0  0  0  0  0
    7.1686    0.0840   18.5766 C   0  0  0  0  0  0  0  0  0  0  0  0
    6.2344   -2.9181   24.1187 N   0  0  0  0  0  0  0  0  0  0  0  0
    3.8715   -1.4111   25.6483 C   0  0  0  0  0  0  0  0  0  0  0  0
    2.7258   -1.3779   26.6679 C   0  0  0  0  0  0  0  0  0  0  0  0
  2  1  1  1
  2  3  1  0
  3  4  1  0
  4  5  1  0
  5  6  1  6
  6  7  2  0
  7  8  1  0
  8  9  1  0
  9 10  2  0
 10 11  1  0
 11 12  1  0
 11 13  1  0
 13 14  2  0
  8 15  1  0
 15 16  1  0
 16 17  1  0
 17 18  1  0
 18 19  1  0
 19 20  2  0
 20 21  1  0
 21 22  2  0
 22 23  1  0
 23 24  2  0
 15 25  2  0
  5 26  1  0
 26 27  1  0
 27  2  1  0
 25  6  1  0
 14  9  1  0
 24 19  1  0
M  END
>  <cnnaffinity>  (402) 
-6.08041

>  <filename>  (402) 
CC1CCC(c2nc(CCCc3cccnc3)n(-c3cnn(C)c3)n2)CC1

>  <enamine_id>  (402) 
PV-003934949914

$$$$

     RDKit          3D

 27 30  0  0  0  0  0  0  0  0999 V2000
    5.9638   -3.2294   27.6867 F   0  0  0  0  0  0  0  0  0  0  0  0
    7.0365   -3.2222   26.8809 C   0  0  0  0  0  0  0  0  0  0  0  0
    7.7638   -4.4020   26.7229 C   0  0  0  0  0  0  0  0  0  0  0  0
    8.8362   -4.4008   25.8269 C   0  0  0  0  0  0  0  0  0  0  0  0
    9.1728   -3.2519   25.1049 C   0  0  0  0  0  0  0  0  0  0  0  0
    8.4381   -2.0746   25.3171 C   0  0  0  0  0  0  0  0  0  0  0  0
    8.7429   -0.8866   24.6069 N   0  0  0  0  0  0  0  0  0  0  0  0
    8.7475    0.3214   25.2357 N   0  0  0  0  0  0  0  0  0  0  0  0
    9.0980    1.1521   24.2824 C   0  0  0  0  0  0  0  0  0  0  0  0
    9.2088    2.6335   24.5175 C   0  0  0  0  0  0  0  0  0  0  0  0
    7.9479    3.3668   23.9555 C   0  0  0  0  0  0  0  0  0  0  0  0
    8.2492    4.8135   23.5640 C   0  0  0  0  0  0  0  0  0  0  0  0
    9.3219    4.9315   22.6351 O   0  0  0  0  0  0  0  0  0  0  0  0
   10.2464    3.8525   22.5415 C   0  0  0  0  0  0  0  0  0  0  0  0
   10.5157    3.2163   23.9017 C   0  0  0  0  0  0  0  0  0  0  0  0
    9.2877    0.5768   23.0656 N   0  0  0  0  0  0  0  0  0  0  0  0
    9.0001   -0.6917   23.2820 C   0  0  0  0  0  0  0  0  0  0  0  0
    8.9454   -1.7370   22.2260 C   0  0  0  0  0  0  0  0  0  0  0  0
    8.5389   -1.1930   20.8698 C   0  0  0  0  0  0  0  0  0  0  0  0
    7.2243   -0.6673   20.9731 O   0  0  0  0  0  0  0  0  0  0  0  0
    6.6808   -0.0373   19.8984 C   0  0  0  0  0  0  0  0  0  0  0  0
    5.4680    0.6192   20.1496 C   0  0  0  0  0  0  0  0  0  0  0  0
    4.8424    1.2833   19.1002 C   0  0  0  0  0  0  0  0  0  0  0  0
    5.4434    1.2795   17.8331 C   0  0  0  0  0  0  0  0  0  0  0  0
    6.5999    0.6494   17.5801 N   0  0  0  0  0  0  0  0  0  0  0  0
    7.2111    0.0106   18.5923 C   0  0  0  0  0  0  0  0  0  0  0  0
    7.3786   -2.0433   26.2306 C   0  0  0  0  0  0  0  0  0  0  0  0
  1  2  1  0
  2  3  2  0
  3  4  1  0
  4  5  2  0
  5  6  1  0
  6  7  1  0
  7  8  1  0
  8  9  2  0
  9 10  1  0
 10 11  1  0
 11 12  1  0
 12 13  1  0
 13 14  1  0
 14 15  1  0
  9 16  1  0
 16 17  2  0
 17 18  1  0
 18 19  1  0
 19 20  1  0
 20 21  1  0
 21 22  2  0
 22 23  1  0
 23 24  2  0
 24 25  1  0
 25 26  2  0
  6 27  2  0
 27  2  1  0
 17  7  1  0
 26 21  1  0
 15 10  1  0
M  END
>  <cnnaffinity>  (403) 
-6.08023

>  <filename>  (403) 
Fc1cccc(-n2nc(C3CCOCC3)nc2CCOc2cccnc2)c1

>  <enamine_id>  (403) 
PV-005228529969

$$$$

     RDKit          3D

 26 29  0  0  0  0  0  0  0  0999 V2000
   13.7317    0.8176   24.0334 Cl  0  0  0  0  0  0  0  0  0  0  0  0
   12.0328    0.6927   24.4107 C   0  0  0  0  0  0  0  0  0  0  0  0
   11.2931   -0.3376   23.8128 C   0  0  0  0  0  0  0  0  0  0  0  0
    9.9503   -0.4691   24.1568 C   0  0  0  0  0  0  0  0  0  0  0  0
    9.3862    0.4752   25.0290 C   0  0  0  0  0  0  0  0  0  0  0  0
    7.9884    0.5018   25.2560 N   0  0  0  0  0  0  0  0  0  0  0  0
    7.4425    0.5187   26.4934 N   0  0  0  0  0  0  0  0  0  0  0  0
    6.1437    0.5163   26.2390 C   0  0  0  0  0  0  0  0  0  0  0  0
    5.0833    0.5091   27.3097 C   0  0  0  0  0  0  0  0  0  0  0  0
    5.4500    1.2458   28.6169 C   0  0  0  0  0  0  0  0  0  0  0  0
    4.1003    1.5706   29.2877 C   0  0  0  0  0  0  0  0  0  0  0  0
    3.0253    1.5247   28.1724 C   0  0  0  0  0  0  0  0  0  0  0  0
    3.7650    1.1797   26.8706 C   0  0  0  0  0  0  0  0  0  0  0  0
    5.8249    0.5207   24.9084 N   0  0  0  0  0  0  0  0  0  0  0  0
    7.0004    0.5296   24.3223 C   0  0  0  0  0  0  0  0  0  0  0  0
    7.2835    0.5822   22.8636 C   0  0  0  0  0  0  0  0  0  0  0  0
    7.0276   -0.7458   22.1460 C   0  0  0  0  0  0  0  0  0  0  0  0
    7.4458   -0.6666   20.7908 O   0  0  0  0  0  0  0  0  0  0  0  0
    6.6881    0.0066   19.8832 C   0  0  0  0  0  0  0  0  0  0  0  0
    5.4676    0.6452   20.1401 C   0  0  0  0  0  0  0  0  0  0  0  0
    4.8261    1.2983   19.0794 C   0  0  0  0  0  0  0  0  0  0  0  0
    5.4154    1.2931   17.8141 C   0  0  0  0  0  0  0  0  0  0  0  0
    6.5777    0.6678   17.5493 N   0  0  0  0  0  0  0  0  0  0  0  0
    7.1874    0.0454   18.5617 C   0  0  0  0  0  0  0  0  0  0  0  0
   10.2116    1.4807   25.5479 C   0  0  0  0  0  0  0  0  0  0  0  0
   11.5080    1.5889   25.2325 N   0  0  0  0  0  0  0  0  0  0  0  0
  1  2  1  0
  2  3  2  0
  3  4  1  0
  4  5  2  0
  5  6  1  0
  6  7  1  0
  7  8  2  0
  8  9  1  0
  9 10  1  0
 10 11  1  0
 11 12  1  0
 12 13  1  0
  8 14  1  0
 14 15  2  0
 15 16  1  0
 16 17  1  0
 17 18  1  0
 18 19  1  0
 19 20  2  0
 20 21  1  0
 21 22  2  0
 22 23  1  0
 23 24  2  0
  5 25  1  0
 25 26  2  0
 26  2  1  0
 15  6  1  0
 24 19  1  0
 13  9  1  0
M  END
>  <cnnaffinity>  (404) 
-6.08012

>  <filename>  (404) 
Clc1ccc(-n2nc(C3CCCC3)nc2CCOc2cccnc2)cn1

>  <enamine_id>  (404) 
PV-004439291968

$$$$

     RDKit          3D

 24 27  0  0  0  0  0  0  0  0999 V2000
   10.4805    3.6342   24.0222 C   0  0  0  0  0  0  0  0  0  0  0  0
    9.3547    4.3346   23.3196 C   0  0  0  0  0  0  0  0  0  0  0  0
    8.5164    3.7765   22.3909 C   0  0  0  0  0  0  0  0  0  0  0  0
    8.4763    2.3831   21.8292 C   0  0  0  0  0  0  0  0  0  0  0  0
    7.5748    1.4272   22.6512 C   0  0  0  0  0  0  0  0  0  0  0  0
    7.6362   -0.0022   22.2199 C   0  0  0  0  0  0  0  0  0  0  0  0
    8.1019   -0.9858   22.9633 N   0  0  0  0  0  0  0  0  0  0  0  0
    8.0573   -2.0646   22.1377 C   0  0  0  0  0  0  0  0  0  0  0  0
    8.5201   -3.4414   22.5516 C   0  0  0  0  0  0  0  0  0  0  0  0
    7.6480   -4.6019   22.0233 C   0  0  0  0  0  0  0  0  0  0  0  0
    8.0192   -5.8113   22.8908 C   0  0  0  0  0  0  0  0  0  0  0  0
    8.4353   -5.2229   24.2615 C   0  0  0  0  0  0  0  0  0  0  0  0
    8.6024   -3.6931   24.0753 C   0  0  0  0  0  0  0  0  0  0  0  0
    7.6100   -1.8047   20.9209 N   0  0  0  0  0  0  0  0  0  0  0  0
    7.3008   -0.4817   20.9850 N   0  0  0  0  0  0  0  0  0  0  0  0
    6.6261    0.1318   19.8942 C   0  0  0  0  0  0  0  0  0  0  0  0
    5.4316    0.8384   20.0776 C   0  0  0  0  0  0  0  0  0  0  0  0
    4.8389    1.4315   18.9587 C   0  0  0  0  0  0  0  0  0  0  0  0
    5.4605    1.2999   17.7124 C   0  0  0  0  0  0  0  0  0  0  0  0
    6.5855    0.5864   17.5247 N   0  0  0  0  0  0  0  0  0  0  0  0
    7.1419    0.0023   18.5913 C   0  0  0  0  0  0  0  0  0  0  0  0
    7.3457    4.9586   21.9075 S   0  0  0  0  0  0  0  0  0  0  0  0
    8.0772    6.0981   22.9694 C   0  0  0  0  0  0  0  0  0  0  0  0
    9.0958    5.6544   23.6371 N   0  0  0  0  0  0  0  0  0  0  0  0
  1  2  1  0
  2  3  2  0
  3  4  1  0
  4  5  1  0
  5  6  1  0
  6  7  2  0
  7  8  1  0
  8  9  1  0
  9 10  1  0
 10 11  1  0
 11 12  1  0
 12 13  1  0
  8 14  2  0
 14 15  1  0
 15 16  1  0
 16 17  2  0
 17 18  1  0
 18 19  2  0
 19 20  1  0
 20 21  2  0
  3 22  1  0
 22 23  1  0
 23 24  2  0
 24  2  1  0
 15  6  1  0
 21 16  1  0
 13  9  1  0
M  END
>  <cnnaffinity>  (405) 
-6.07906

>  <filename>  (405) 
Cc1ncsc1CCc1nc(C2CCCC2)nn1-c1cccnc1

>  <enamine_id>  (405) 
PV-007094448026

$$$$

     RDKit          3D

 24 27  0  0  0  0  0  0  0  0999 V2000
   11.5917    2.4998   23.2077 Cl  0  0  0  0  0  0  0  0  0  0  0  0
   10.0006    2.2102   23.8452 C   0  0  0  0  0  0  0  0  0  0  0  0
    9.9330    2.1735   25.1668 N   0  0  0  0  0  0  0  0  0  0  0  0
    8.7325    1.9390   25.7063 C   0  0  0  0  0  0  0  0  0  0  0  0
    7.5787    1.7324   24.9520 C   0  0  0  0  0  0  0  0  0  0  0  0
    7.6783    1.7874   23.5623 C   0  0  0  0  0  0  0  0  0  0  0  0
    8.9148    2.0515   22.9576 C   0  0  0  0  0  0  0  0  0  0  0  0
    9.0516    2.0079   21.4520 C   0  0  0  0  0  0  0  0  0  0  0  0
    9.5258    0.6151   20.9500 C   0  0  0  0  0  0  0  0  0  0  0  0
    8.6419   -0.5010   21.4103 C   0  0  0  0  0  0  0  0  0  0  0  0
    8.8631   -1.3137   22.4310 N   0  0  0  0  0  0  0  0  0  0  0  0
    7.6639   -1.9223   22.6009 C   0  0  0  0  0  0  0  0  0  0  0  0
    7.3814   -2.8212   23.7624 C   0  0  0  0  0  0  0  0  0  0  0  0
    6.4826   -4.0399   23.4408 C   0  0  0  0  0  0  0  0  0  0  0  0
    5.1866   -3.4794   24.5964 S   0  0  0  0  0  0  0  0  0  0  0  0
    6.4446   -2.1797   24.8302 C   0  0  0  0  0  0  0  0  0  0  0  0
    6.7363   -1.5783   21.7301 N   0  0  0  0  0  0  0  0  0  0  0  0
    7.3698   -0.6730   20.9407 N   0  0  0  0  0  0  0  0  0  0  0  0
    6.6609    0.0014   19.9041 C   0  0  0  0  0  0  0  0  0  0  0  0
    5.4442    0.6421   20.1677 C   0  0  0  0  0  0  0  0  0  0  0  0
    4.8135    1.3097   19.1119 C   0  0  0  0  0  0  0  0  0  0  0  0
    5.4006    1.2951   17.8402 C   0  0  0  0  0  0  0  0  0  0  0  0
    6.5612    0.6739   17.5795 N   0  0  0  0  0  0  0  0  0  0  0  0
    7.1701    0.0519   18.5950 C   0  0  0  0  0  0  0  0  0  0  0  0
  1  2  1  0
  2  3  2  0
  3  4  1  0
  4  5  2  0
  5  6  1  0
  6  7  2  0
  7  8  1  0
  8  9  1  0
  9 10  1  0
 10 11  2  0
 11 12  1  0
 12 13  1  0
 13 14  1  0
 14 15  1  0
 15 16  1  0
 12 17  2  0
 17 18  1  0
 18 19  1  0
 19 20  2  0
 20 21  1  0
 21 22  2  0
 22 23  1  0
 23 24  2  0
  7  2  1  0
 18 10  1  0
 24 19  1  0
 16 13  1  0
M  END
>  <cnnaffinity>  (406) 
-6.07643

>  <filename>  (406) 
Clc1ncccc1CCc1nc(C2CSC2)nn1-c1cccnc1

>  <enamine_id>  (406) 
PV-006940477351

$$$$

     RDKit          3D

 26 29  0  0  0  0  0  0  0  0999 V2000
    7.4847   -1.3980   27.1856 F   0  0  0  0  0  0  0  0  0  0  0  0
    6.5143   -0.7258   26.5381 C   0  0  0  0  0  0  0  0  0  0  0  0
    5.2164   -0.7719   27.0267 C   0  0  0  0  0  0  0  0  0  0  0  0
    4.2338   -0.0214   26.3664 C   0  0  0  0  0  0  0  0  0  0  0  0
    4.5581    0.6986   25.2279 C   0  0  0  0  0  0  0  0  0  0  0  0
    3.5964    1.4133   24.6198 F   0  0  0  0  0  0  0  0  0  0  0  0
    5.8660    0.6869   24.6948 C   0  0  0  0  0  0  0  0  0  0  0  0
    6.0519    1.3446   23.5104 O   0  0  0  0  0  0  0  0  0  0  0  0
    7.3099    1.2967   22.8284 C   0  0  0  0  0  0  0  0  0  0  0  0
    7.6448   -0.0430   22.2465 C   0  0  0  0  0  0  0  0  0  0  0  0
    8.3085   -0.9570   22.9236 N   0  0  0  0  0  0  0  0  0  0  0  0
    8.3484   -2.0126   22.0818 C   0  0  0  0  0  0  0  0  0  0  0  0
    8.9239   -3.2917   22.5731 C   0  0  2  0  0  0  0  0  0  0  0  0
    8.1283   -4.0008   23.7013 C   0  0  0  0  0  0  0  0  0  0  0  0
    9.2147   -4.8072   24.4287 C   0  0  0  0  0  0  0  0  0  0  0  0
   10.4475   -4.1525   24.1621 O   0  0  0  0  0  0  0  0  0  0  0  0
   10.2967   -3.0917   23.2358 C   0  0  0  0  0  0  0  0  0  0  0  0
    7.8216   -1.7976   20.8977 N   0  0  0  0  0  0  0  0  0  0  0  0
    7.3383   -0.5256   21.0078 N   0  0  0  0  0  0  0  0  0  0  0  0
    6.6255    0.0741   19.9311 C   0  0  0  0  0  0  0  0  0  0  0  0
    5.4319    0.7720   20.1581 C   0  0  0  0  0  0  0  0  0  0  0  0
    4.8134    1.3788   19.0585 C   0  0  0  0  0  0  0  0  0  0  0  0
    5.4140    1.2814   17.8009 C   0  0  0  0  0  0  0  0  0  0  0  0
    6.5420    0.5830   17.5768 N   0  0  0  0  0  0  0  0  0  0  0  0
    7.1183   -0.0262   18.6169 C   0  0  0  0  0  0  0  0  0  0  0  0
    6.8617   -0.0035   25.3997 C   0  0  0  0  0  0  0  0  0  0  0  0
  1  2  1  0
  2  3  2  0
  3  4  1  0
  4  5  2  0
  5  6  1  0
  5  7  1  0
  7  8  1  0
  8  9  1  0
  9 10  1  0
 10 11  2  0
 11 12  1  0
 13 12  1  1
 13 14  1  0
 14 15  1  0
 15 16  1  0
 16 17  1  0
 12 18  2  0
 18 19  1  0
 19 20  1  0
 20 21  2  0
 21 22  1  0
 22 23  2  0
 23 24  1  0
 24 25  2  0
  7 26  2  0
 26  2  1  0
 19 10  1  0
 25 20  1  0
 17 13  1  0
M  END
>  <cnnaffinity>  (407) 
-6.07598

>  <filename>  (407) 
Fc1ccc(F)c(OCc2nc(C3CCOC3)nn2-c2cccnc2)c1

>  <enamine_id>  (407) 
PV-007055741401

$$$$

     RDKit          3D

 23 25  0  0  0  0  0  0  0  0999 V2000
    8.4306   -4.8346   22.5303 C   0  0  0  0  0  0  0  0  0  0  0  0
    7.0994   -4.4575   23.1741 C   0  0  0  0  0  0  0  0  0  0  0  0
    7.1477   -3.0075   23.7060 C   0  0  0  0  0  0  0  0  0  0  0  0
    7.4367   -1.9932   22.6342 C   0  0  0  0  0  0  0  0  0  0  0  0
    6.5417   -1.6290   21.7395 N   0  0  0  0  0  0  0  0  0  0  0  0
    7.2395   -0.8073   20.9137 N   0  0  0  0  0  0  0  0  0  0  0  0
    6.5722   -0.1050   19.8713 C   0  0  0  0  0  0  0  0  0  0  0  0
    5.3859    0.5897   20.1331 C   0  0  0  0  0  0  0  0  0  0  0  0
    4.8047    1.3094   19.0870 C   0  0  0  0  0  0  0  0  0  0  0  0
    5.4107    1.3006   17.8244 C   0  0  0  0  0  0  0  0  0  0  0  0
    6.5303    0.6120   17.5595 N   0  0  0  0  0  0  0  0  0  0  0  0
    7.0869   -0.0752   18.5631 C   0  0  0  0  0  0  0  0  0  0  0  0
    8.5107   -0.6827   21.3929 C   0  0  0  0  0  0  0  0  0  0  0  0
    9.5725    0.1090   20.6768 C   0  0  0  0  0  0  0  0  0  0  0  0
   10.5746    0.6924   21.4950 O   0  0  0  0  0  0  0  0  0  0  0  0
   10.2701    1.6499   22.4180 C   0  0  0  0  0  0  0  0  0  0  0  0
    8.9946    2.2127   22.6089 C   0  0  0  0  0  0  0  0  0  0  0  0
    8.7808    3.1652   23.6139 C   0  0  0  0  0  0  0  0  0  0  0  0
    9.8375    3.6137   24.4041 C   0  0  0  0  0  0  0  0  0  0  0  0
   11.1152    3.0879   24.2039 C   0  0  0  0  0  0  0  0  0  0  0  0
   11.3262    2.0895   23.2515 C   0  0  0  0  0  0  0  0  0  0  0  0
   12.8950    1.3497   23.1603 Cl  0  0  0  0  0  0  0  0  0  0  0  0
    8.6681   -1.4409   22.4605 N   0  0  0  0  0  0  0  0  0  0  0  0
  1  2  1  0
  2  3  1  0
  3  4  1  0
  4  5  2  0
  5  6  1  0
  6  7  1  0
  7  8  2  0
  8  9  1  0
  9 10  2  0
 10 11  1  0
 11 12  2  0
  6 13  1  0
 13 14  1  0
 14 15  1  0
 15 16  1  0
 16 17  2  0
 17 18  1  0
 18 19  2  0
 19 20  1  0
 20 21  2  0
 21 22  1  0
 13 23  2  0
 23  4  1  0
 12  7  1  0
 21 16  1  0
M  END
>  <cnnaffinity>  (408) 
-6.07571

>  <filename>  (408) 
CCCc1nc(COc2ccccc2Cl)n(-c2cccnc2)n1

>  <enamine_id>  (408) 
PV-006998093948

$$$$

     RDKit          3D

 23 26  0  0  0  0  0  0  0  0999 V2000
    6.6417    1.5449   23.6724 Br  0  0  0  0  0  0  0  0  0  0  0  0
    8.5013    1.6526   24.1284 C   0  0  0  0  0  0  0  0  0  0  0  0
    8.8846    1.5500   25.4730 C   0  0  0  0  0  0  0  0  0  0  0  0
   10.1628    1.6138   25.8814 N   0  0  0  0  0  0  0  0  0  0  0  0
   11.1091    1.7803   24.9509 C   0  0  0  0  0  0  0  0  0  0  0  0
   10.8140    1.8939   23.5968 C   0  0  0  0  0  0  0  0  0  0  0  0
    9.4959    1.8263   23.1583 C   0  0  0  0  0  0  0  0  0  0  0  0
    9.2074    1.9303   21.6818 C   0  0  0  0  0  0  0  0  0  0  0  0
    9.5363    0.6079   20.9639 C   0  0  0  0  0  0  0  0  0  0  0  0
    8.5922   -0.4667   21.4180 C   0  0  0  0  0  0  0  0  0  0  0  0
    8.8458   -1.2659   22.4100 N   0  0  0  0  0  0  0  0  0  0  0  0
    7.6496   -1.9456   22.5535 C   0  0  0  0  0  0  0  0  0  0  0  0
    7.4458   -3.0024   23.5981 C   0  0  0  0  0  0  0  0  0  0  0  0
    7.0029   -4.3871   23.1386 C   0  0  0  0  0  0  0  0  0  0  0  0
    8.4176   -4.1744   23.6645 C   0  0  0  0  0  0  0  0  0  0  0  0
    6.7171   -1.6441   21.6824 N   0  0  0  0  0  0  0  0  0  0  0  0
    7.3121   -0.6942   20.9310 N   0  0  0  0  0  0  0  0  0  0  0  0
    6.6658    0.0044   19.9085 C   0  0  0  0  0  0  0  0  0  0  0  0
    5.4479    0.6419   20.1619 C   0  0  0  0  0  0  0  0  0  0  0  0
    4.8208    1.3049   19.1046 C   0  0  0  0  0  0  0  0  0  0  0  0
    5.4022    1.2957   17.8286 C   0  0  0  0  0  0  0  0  0  0  0  0
    6.5750    0.6784   17.5825 N   0  0  0  0  0  0  0  0  0  0  0  0
    7.1898    0.0599   18.6050 C   0  0  0  0  0  0  0  0  0  0  0  0
  1  2  1  0
  2  3  2  0
  3  4  1  0
  4  5  2  0
  5  6  1  0
  6  7  2  0
  7  8  1  0
  8  9  1  0
  9 10  1  0
 10 11  2  0
 11 12  1  0
 12 13  1  0
 13 14  1  0
 14 15  1  0
 12 16  2  0
 16 17  1  0
 17 18  1  0
 18 19  2  0
 19 20  1  0
 20 21  2  0
 21 22  1  0
 22 23  2  0
  7  2  1  0
 17 10  1  0
 23 18  1  0
 15 13  1  0
M  END
>  <cnnaffinity>  (409) 
-6.07498

>  <filename>  (409) 
Brc1cnccc1CCc1nc(C2CC2)nn1-c1cccnc1

>  <enamine_id>  (409) 
PV-007005157176

$$$$

     RDKit          3D

 25 28  0  0  0  0  0  0  0  0999 V2000
    6.9238    5.7522   25.0998 Cl  0  0  0  0  0  0  0  0  0  0  0  0
    7.0948    4.0266   25.0037 C   0  0  0  0  0  0  0  0  0  0  0  0
    8.3710    3.4736   25.1454 C   0  0  0  0  0  0  0  0  0  0  0  0
    8.4980    2.0885   25.0671 C   0  0  0  0  0  0  0  0  0  0  0  0
    7.3450    1.3158   24.8535 C   0  0  0  0  0  0  0  0  0  0  0  0
    7.4068   -0.1024   24.7396 N   0  0  0  0  0  0  0  0  0  0  0  0
    6.5713   -0.9153   25.4515 N   0  0  0  0  0  0  0  0  0  0  0  0
    6.9325   -2.1208   25.0642 C   0  0  0  0  0  0  0  0  0  0  0  0
    6.2838   -3.3818   25.5398 C   0  0  0  0  0  0  0  0  0  0  0  0
    7.2611   -4.5213   25.9528 C   0  0  0  0  0  0  0  0  0  0  0  0
    6.5968   -5.6484   24.6804 S   0  0  0  0  0  0  0  0  0  0  0  0
    5.5480   -4.1813   24.4219 C   0  0  0  0  0  0  0  0  0  0  0  0
    7.9204   -2.1519   24.1326 N   0  0  0  0  0  0  0  0  0  0  0  0
    8.1982   -0.8790   23.9390 C   0  0  0  0  0  0  0  0  0  0  0  0
    9.1012   -0.3328   22.8781 C   0  0  0  0  0  0  0  0  0  0  0  0
    8.3208    0.3232   21.7249 C   0  0  0  0  0  0  0  0  0  0  0  0
    7.4050   -0.6750   21.0001 C   0  0  0  0  0  0  0  0  0  0  0  0
    6.6428   -0.0097   19.8901 C   0  0  0  0  0  0  0  0  0  0  0  0
    5.4330    0.6479   20.1452 C   0  0  0  0  0  0  0  0  0  0  0  0
    4.7993    1.3147   19.0961 C   0  0  0  0  0  0  0  0  0  0  0  0
    5.3959    1.2995   17.8301 C   0  0  0  0  0  0  0  0  0  0  0  0
    6.5595    0.6878   17.5652 N   0  0  0  0  0  0  0  0  0  0  0  0
    7.1596    0.0610   18.5862 C   0  0  0  0  0  0  0  0  0  0  0  0
    6.1174    1.9883   24.7454 C   0  0  0  0  0  0  0  0  0  0  0  0
    5.9936    3.3182   24.8100 N   0  0  0  0  0  0  0  0  0  0  0  0
  1  2  1  0
  2  3  2  0
  3  4  1  0
  4  5  2  0
  5  6  1  0
  6  7  1  0
  7  8  2  0
  8  9  1  0
  9 10  1  0
 10 11  1  0
 11 12  1  0
  8 13  1  0
 13 14  2  0
 14 15  1  0
 15 16  1  0
 16 17  1  0
 17 18  1  0
 18 19  2  0
 19 20  1  0
 20 21  2  0
 21 22  1  0
 22 23  2  0
  5 24  1  0
 24 25  2  0
 25  2  1  0
 14  6  1  0
 23 18  1  0
 12  9  1  0
M  END
>  <cnnaffinity>  (410) 
-6.07364

>  <filename>  (410) 
Clc1ccc(-n2nc(C3CSC3)nc2CCCc2cccnc2)cn1

>  <enamine_id>  (410) 
PV-005576447021

$$$$

     RDKit          3D

 24 27  0  0  0  0  0  0  0  0999 V2000
    8.3503    6.4414   23.0734 C   0  0  0  0  0  0  0  0  0  0  0  0
    7.2896    5.9236   22.3288 C   0  0  0  0  0  0  0  0  0  0  0  0
    7.3450    4.5798   21.9590 C   0  0  0  0  0  0  0  0  0  0  0  0
    8.4448    3.7938   22.3428 C   0  0  0  0  0  0  0  0  0  0  0  0
    8.5276    2.3388   21.9157 C   0  0  0  0  0  0  0  0  0  0  0  0
    7.5811    1.3838   22.6960 C   0  0  0  0  0  0  0  0  0  0  0  0
    7.6100   -0.0468   22.2468 C   0  0  0  0  0  0  0  0  0  0  0  0
    8.0586   -1.0402   22.9882 N   0  0  0  0  0  0  0  0  0  0  0  0
    8.0529   -2.1007   22.1406 C   0  0  0  0  0  0  0  0  0  0  0  0
    8.5111   -3.4814   22.5440 C   0  0  0  0  0  0  0  0  0  0  0  0
    8.6239   -3.7371   24.0660 C   0  0  0  0  0  0  0  0  0  0  0  0
    8.4483   -5.2625   24.2616 C   0  0  0  0  0  0  0  0  0  0  0  0
    7.9823   -5.8411   22.9056 C   0  0  0  0  0  0  0  0  0  0  0  0
    7.6240   -4.6359   22.0254 C   0  0  0  0  0  0  0  0  0  0  0  0
    7.6400   -1.8227   20.9147 N   0  0  0  0  0  0  0  0  0  0  0  0
    7.3053   -0.5060   20.9955 N   0  0  0  0  0  0  0  0  0  0  0  0
    6.6330    0.1140   19.9009 C   0  0  0  0  0  0  0  0  0  0  0  0
    5.4321    0.8132   20.0868 C   0  0  0  0  0  0  0  0  0  0  0  0
    4.8422    1.4204   18.9738 C   0  0  0  0  0  0  0  0  0  0  0  0
    5.4722    1.3204   17.7312 C   0  0  0  0  0  0  0  0  0  0  0  0
    6.6022    0.6159   17.5385 N   0  0  0  0  0  0  0  0  0  0  0  0
    7.1516    0.0073   18.5961 C   0  0  0  0  0  0  0  0  0  0  0  0
    9.4388    4.2834   23.1035 N   0  0  0  0  0  0  0  0  0  0  0  0
    9.3864    5.5790   23.4438 C   0  0  0  0  0  0  0  0  0  0  0  0
  1  2  2  0
  2  3  1  0
  3  4  2  0
  4  5  1  0
  5  6  1  0
  6  7  1  0
  7  8  2  0
  8  9  1  0
  9 10  1  0
 10 11  1  0
 11 12  1  0
 12 13  1  0
 13 14  1  0
  9 15  2  0
 15 16  1  0
 16 17  1  0
 17 18  2  0
 18 19  1  0
 19 20  2  0
 20 21  1  0
 21 22  2  0
  4 23  1  0
 23 24  2  0
 24  1  1  0
 16  7  1  0
 22 17  1  0
 14 10  1  0
M  END
>  <cnnaffinity>  (411) 
-6.07331

>  <filename>  (411) 
c1ccc(CCc2nc(C3CCCC3)nn2-c2cccnc2)nc1

>  <enamine_id>  (411) 
PV-007101734052

$$$$

     RDKit          3D

 27 30  0  0  0  0  0  0  0  0999 V2000
    7.4056    5.6781   26.6148 F   0  0  0  0  0  0  0  0  0  0  0  0
    7.8033    4.7612   25.7193 C   0  0  0  0  0  0  0  0  0  0  0  0
    7.8181    5.0796   24.3708 C   0  0  0  0  0  0  0  0  0  0  0  0
    8.2350    4.1107   23.4438 C   0  0  0  0  0  0  0  0  0  0  0  0
    8.6326    2.8307   23.8549 C   0  0  0  0  0  0  0  0  0  0  0  0
    9.0561    1.8317   23.0372 O   0  0  0  0  0  0  0  0  0  0  0  0
    9.0592    1.9882   21.6199 C   0  0  0  0  0  0  0  0  0  0  0  0
    9.4979    0.6494   21.0210 C   0  0  0  0  0  0  0  0  0  0  0  0
    8.6106   -0.4648   21.4507 C   0  0  0  0  0  0  0  0  0  0  0  0
    8.8319   -1.2876   22.4521 N   0  0  0  0  0  0  0  0  0  0  0  0
    7.6528   -1.9469   22.5779 C   0  0  0  0  0  0  0  0  0  0  0  0
    7.3934   -2.9183   23.6867 C   0  0  1  0  0  0  0  0  0  0  0  0
    8.5582   -3.9121   23.9147 C   0  0  0  0  0  0  0  0  0  0  0  0
    9.4131   -3.2447   25.0093 C   0  0  0  0  0  0  0  0  0  0  0  0
    8.6298   -2.2002   25.5584 O   0  0  0  0  0  0  0  0  0  0  0  0
    7.3145   -2.2004   25.0512 C   0  0  0  0  0  0  0  0  0  0  0  0
    6.7310   -1.6113   21.7004 N   0  0  0  0  0  0  0  0  0  0  0  0
    7.3558   -0.6643   20.9442 N   0  0  0  0  0  0  0  0  0  0  0  0
    6.6580    0.0100   19.9015 C   0  0  0  0  0  0  0  0  0  0  0  0
    5.4390    0.6456   20.1653 C   0  0  0  0  0  0  0  0  0  0  0  0
    4.8128    1.3112   19.1082 C   0  0  0  0  0  0  0  0  0  0  0  0
    5.4006    1.2965   17.8367 C   0  0  0  0  0  0  0  0  0  0  0  0
    6.5586    0.6713   17.5746 N   0  0  0  0  0  0  0  0  0  0  0  0
    7.1674    0.0503   18.5911 C   0  0  0  0  0  0  0  0  0  0  0  0
    8.5954    2.5616   25.2467 C   0  0  0  0  0  0  0  0  0  0  0  0
    8.9563    1.3487   25.7050 F   0  0  0  0  0  0  0  0  0  0  0  0
    8.1914    3.5066   26.1803 C   0  0  0  0  0  0  0  0  0  0  0  0
  1  2  1  0
  2  3  2  0
  3  4  1  0
  4  5  2  0
  5  6  1  0
  6  7  1  0
  7  8  1  0
  8  9  1  0
  9 10  2  0
 10 11  1  0
 12 11  1  6
 12 13  1  0
 13 14  1  0
 14 15  1  0
 15 16  1  0
 11 17  2  0
 17 18  1  0
 18 19  1  0
 19 20  2  0
 20 21  1  0
 21 22  2  0
 22 23  1  0
 23 24  2  0
  5 25  1  0
 25 26  1  0
 25 27  2  0
 27  2  1  0
 18  9  1  0
 24 19  1  0
 16 12  1  0
M  END
>  <cnnaffinity>  (412) 
-6.07186

>  <filename>  (412) 
Fc1ccc(OCCc2nc(C3CCOC3)nn2-c2cccnc2)c(F)c1

>  <enamine_id>  (412) 
PV-007029584746

$$$$

     RDKit          3D

 26 29  0  0  0  0  0  0  0  0999 V2000
    9.3505    1.6644   23.1464 C   0  0  0  0  0  0  0  0  0  0  0  0
    8.1211    1.3294   22.2881 C   0  0  2  0  0  0  0  0  0  0  0  0
    6.8366    1.8702   22.9339 C   0  0  0  0  0  0  0  0  0  0  0  0
    6.1879    3.0179   22.4636 C   0  0  0  0  0  0  0  0  0  0  0  0
    6.6881    3.6417   21.3866 F   0  0  0  0  0  0  0  0  0  0  0  0
    5.0321    3.5474   23.0272 C   0  0  0  0  0  0  0  0  0  0  0  0
    4.4934    2.9161   24.1495 C   0  0  0  0  0  0  0  0  0  0  0  0
    5.1125    1.7868   24.6862 C   0  0  0  0  0  0  0  0  0  0  0  0
    6.2660    1.3010   24.0761 C   0  0  0  0  0  0  0  0  0  0  0  0
    6.8560    0.2317   24.6388 F   0  0  0  0  0  0  0  0  0  0  0  0
    8.0442   -0.1438   22.0070 C   0  0  0  0  0  0  0  0  0  0  0  0
    8.5822   -1.1240   22.7019 N   0  0  0  0  0  0  0  0  0  0  0  0
    8.1896   -2.2239   22.0270 C   0  0  0  0  0  0  0  0  0  0  0  0
    8.6357   -3.5711   22.4602 C   0  0  2  0  0  0  0  0  0  0  0  0
    7.7042   -4.7284   22.0607 C   0  0  0  0  0  0  0  0  0  0  0  0
    7.9986   -5.8005   23.1122 C   0  0  0  0  0  0  0  0  0  0  0  0
    8.6456   -5.1525   24.1968 O   0  0  0  0  0  0  0  0  0  0  0  0
    8.8083   -3.7638   23.9709 C   0  0  0  0  0  0  0  0  0  0  0  0
    7.5095   -1.9973   20.9178 N   0  0  0  0  0  0  0  0  0  0  0  0
    7.3688   -0.6499   20.9339 N   0  0  0  0  0  0  0  0  0  0  0  0
    6.6512    0.0115   19.9008 C   0  0  0  0  0  0  0  0  0  0  0  0
    5.4357    0.6476   20.1595 C   0  0  0  0  0  0  0  0  0  0  0  0
    4.8047    1.3083   19.1031 C   0  0  0  0  0  0  0  0  0  0  0  0
    5.4017    1.2937   17.8383 C   0  0  0  0  0  0  0  0  0  0  0  0
    6.5656    0.6700   17.5844 N   0  0  0  0  0  0  0  0  0  0  0  0
    7.1701    0.0394   18.5956 C   0  0  0  0  0  0  0  0  0  0  0  0
  2  1  1  1
  2  3  1  0
  3  4  2  0
  4  5  1  0
  4  6  1  0
  6  7  2  0
  7  8  1  0
  8  9  2  0
  9 10  1  0
  2 11  1  0
 11 12  2  0
 12 13  1  0
 14 13  1  1
 14 15  1  0
 15 16  1  0
 16 17  1  0
 17 18  1  0
 13 19  2  0
 19 20  1  0
 20 21  1  0
 21 22  2  0
 22 23  1  0
 23 24  2  0
 24 25  1  0
 25 26  2  0
  9  3  1  0
 20 11  1  0
 26 21  1  0
 18 14  1  0
M  END
>  <cnnaffinity>  (413) 
-6.0718

>  <filename>  (413) 
CC(c1c(F)cccc1F)c1nc(C2CCOC2)nn1-c1cccnc1

>  <enamine_id>  (413) 
PV-007174237786

$$$$

     RDKit          3D

 25 28  0  0  0  0  0  0  0  0999 V2000
    7.1056    2.1350   23.2054 C   0  0  0  0  0  0  0  0  0  0  0  0
    8.0850    2.8795   21.8720 S   0  0  0  0  0  0  0  0  0  0  0  0
    9.7035    2.3323   22.4082 C   0  0  0  0  0  0  0  0  0  0  0  0
   10.3304    3.0266   23.4513 C   0  0  0  0  0  0  0  0  0  0  0  0
   11.5503    2.5830   23.9643 C   0  0  0  0  0  0  0  0  0  0  0  0
   12.1543    1.4339   23.4509 C   0  0  0  0  0  0  0  0  0  0  0  0
   11.5321    0.7449   22.4066 C   0  0  0  0  0  0  0  0  0  0  0  0
   10.3232    1.1924   21.8575 C   0  0  0  0  0  0  0  0  0  0  0  0
    9.6382    0.3573   20.7991 C   0  0  0  0  0  0  0  0  0  0  0  0
    8.6223   -0.5652   21.3687 C   0  0  0  0  0  0  0  0  0  0  0  0
    8.8626   -1.4353   22.3286 N   0  0  0  0  0  0  0  0  0  0  0  0
    7.6564   -2.0235   22.5154 C   0  0  0  0  0  0  0  0  0  0  0  0
    7.4334   -3.0570   23.5718 C   0  0  2  0  0  0  0  0  0  0  0  0
    6.0160   -3.0543   24.1795 C   0  0  0  0  0  0  0  0  0  0  0  0
    6.2279   -3.6359   25.5788 C   0  0  0  0  0  0  0  0  0  0  0  0
    7.6091   -3.4909   25.8773 O   0  0  0  0  0  0  0  0  0  0  0  0
    8.3252   -2.8885   24.8137 C   0  0  0  0  0  0  0  0  0  0  0  0
    6.7000   -1.6026   21.7053 N   0  0  0  0  0  0  0  0  0  0  0  0
    7.3371   -0.6853   20.9331 N   0  0  0  0  0  0  0  0  0  0  0  0
    6.6470    0.0018   19.9004 C   0  0  0  0  0  0  0  0  0  0  0  0
    5.4361    0.6444   20.1668 C   0  0  0  0  0  0  0  0  0  0  0  0
    4.8122    1.3138   19.1104 C   0  0  0  0  0  0  0  0  0  0  0  0
    5.3978    1.2966   17.8380 C   0  0  0  0  0  0  0  0  0  0  0  0
    6.5531    0.6678   17.5737 N   0  0  0  0  0  0  0  0  0  0  0  0
    7.1611    0.0471   18.5897 C   0  0  0  0  0  0  0  0  0  0  0  0
  1  2  1  0
  2  3  1  0
  3  4  2  0
  4  5  1  0
  5  6  2  0
  6  7  1  0
  7  8  2  0
  8  9  1  0
  9 10  1  0
 10 11  2  0
 11 12  1  0
 13 12  1  6
 13 14  1  0
 14 15  1  0
 15 16  1  0
 16 17  1  0
 12 18  2  0
 18 19  1  0
 19 20  1  0
 20 21  2  0
 21 22  1  0
 22 23  2  0
 23 24  1  0
 24 25  2  0
  8  3  1  0
 19 10  1  0
 25 20  1  0
 17 13  1  0
M  END
>  <cnnaffinity>  (414) 
-6.0713

>  <filename>  (414) 
CSc1ccccc1Cc1nc(C2CCOC2)nn1-c1cccnc1

>  <enamine_id>  (414) 
PV-007075266655

$$$$

     RDKit          3D

 23 26  0  0  0  0  0  0  0  0999 V2000
    6.0925   -4.9031   25.6241 C   0  0  0  0  0  0  0  0  0  0  0  0
    5.9845   -3.5848   25.8017 C   0  0  0  0  0  0  0  0  0  0  0  0
    6.4661   -2.5696   24.7944 C   0  0  0  0  0  0  0  0  0  0  0  0
    7.3570   -3.2043   23.6864 C   0  0  2  0  0  0  0  0  0  0  0  0
    7.6838   -2.1979   22.6235 C   0  0  0  0  0  0  0  0  0  0  0  0
    6.8417   -1.8037   21.6878 N   0  0  0  0  0  0  0  0  0  0  0  0
    7.5252   -0.8105   21.0501 N   0  0  0  0  0  0  0  0  0  0  0  0
    6.8672   -0.0946   19.9924 C   0  0  0  0  0  0  0  0  0  0  0  0
    5.6537    0.5650   20.2412 C   0  0  0  0  0  0  0  0  0  0  0  0
    5.0364    1.2407   19.1835 C   0  0  0  0  0  0  0  0  0  0  0  0
    5.6233    1.2056   17.9122 C   0  0  0  0  0  0  0  0  0  0  0  0
    6.7696    0.5563   17.6570 N   0  0  0  0  0  0  0  0  0  0  0  0
    7.3738   -0.0676   18.6793 C   0  0  0  0  0  0  0  0  0  0  0  0
    8.7412   -0.6604   21.6641 C   0  0  0  0  0  0  0  0  0  0  0  0
    9.7399    0.4141   21.3686 C   0  0  0  0  0  0  0  0  0  0  0  0
    9.3009    1.7233   21.9700 C   0  0  0  0  0  0  0  0  0  0  0  0
    9.5290    2.1752   23.2399 C   0  0  0  0  0  0  0  0  0  0  0  0
    8.7453    3.2815   23.4391 N   0  0  0  0  0  0  0  0  0  0  0  0
    8.0036    3.5413   22.3140 C   0  0  0  0  0  0  0  0  0  0  0  0
    8.3361    2.5820   21.3897 C   0  0  0  0  0  0  0  0  0  0  0  0
    8.8647   -1.5267   22.6451 N   0  0  0  0  0  0  0  0  0  0  0  0
    6.7214   -4.5186   23.1865 C   0  0  0  0  0  0  0  0  0  0  0  0
    6.6303   -5.5218   24.3535 C   0  0  0  0  0  0  0  0  0  0  0  0
  1  2  2  0
  2  3  1  0
  3  4  1  0
  4  5  1  6
  5  6  2  0
  6  7  1  0
  7  8  1  0
  8  9  2  0
  9 10  1  0
 10 11  2  0
 11 12  1  0
 12 13  2  0
  7 14  1  0
 14 15  1  0
 15 16  1  0
 16 17  2  0
 17 18  1  0
 18 19  1  0
 19 20  2  0
 14 21  2  0
  4 22  1  0
 22 23  1  0
 23  1  1  0
 21  5  1  0
 13  8  1  0
 20 16  1  0
M  END
>  <cnnaffinity>  (415) 
-6.07121

>  <filename>  (415) 
C1=CCC(c2nc(Cc3cc[nH]c3)n(-c3cccnc3)n2)CC1

>  <enamine_id>  (415) 
PV-006945910249

$$$$

     RDKit          3D

 25 28  0  0  0  0  0  0  0  0999 V2000
    4.7767    1.3358   19.1114 C   0  0  0  0  0  0  0  0  0  0  0  0
    5.3230    1.2895   17.8874 C   0  0  0  0  0  0  0  0  0  0  0  0
    6.5343    0.6945   17.6506 N   0  0  0  0  0  0  0  0  0  0  0  0
    7.2012    0.0149   18.6151 C   0  0  0  0  0  0  0  0  0  0  0  0
    6.6362    0.0163   19.8851 C   0  0  0  0  0  0  0  0  0  0  0  0
    7.3345   -0.6494   20.8711 N   0  0  0  0  0  0  0  0  0  0  0  0
    6.6381   -1.6077   21.7426 N   0  0  0  0  0  0  0  0  0  0  0  0
    7.6060   -2.0170   22.5243 C   0  0  0  0  0  0  0  0  0  0  0  0
    7.4289   -3.0330   23.6904 C   0  0  0  0  0  0  0  0  0  0  0  0
    6.6333   -2.2660   24.8574 C   0  0  0  0  0  0  0  0  0  0  0  0
    5.9149   -3.3450   25.7693 C   0  0  0  0  0  0  0  0  0  0  0  0
    6.5985   -4.6329   25.6407 O   0  0  0  0  0  0  0  0  0  0  0  0
    6.2905   -5.2345   24.3444 C   0  0  0  0  0  0  0  0  0  0  0  0
    6.5833   -4.2414   23.1168 C   0  0  0  0  0  0  0  0  0  0  0  0
    8.7987   -1.4638   22.3190 N   0  0  0  0  0  0  0  0  0  0  0  0
    8.6208   -0.6700   21.2959 C   0  0  0  0  0  0  0  0  0  0  0  0
    9.5995    0.1781   20.5817 C   0  0  0  0  0  0  0  0  0  0  0  0
   10.5838    0.9817   21.8107 C   0  0  0  0  0  0  0  0  0  0  0  0
   10.0518    2.2680   23.3431 C   0  0  0  0  0  0  0  0  0  0  0  0
   10.8909    2.4514   23.5353 N   0  0  0  0  0  0  0  0  0  0  0  0
   10.9669    2.8928   24.7409 C   0  0  0  0  0  0  0  0  0  0  0  0
   10.9671    2.8927   24.7409 C   0  0  0  0  0  0  0  0  0  0  0  0
   11.1005    3.3897   24.4926 C   0  0  0  0  0  0  0  0  0  0  0  0
   11.7650    2.8230   23.6578 C   0  0  0  0  0  0  0  0  0  0  0  0
    5.4058    0.6773   20.0992 C   0  0  0  0  0  0  0  0  0  0  0  0
  1  2  2  0
  2  3  1  0
  3  4  2  0
  4  5  1  0
  5  6  1  0
  6  7  1  0
  7  8  2  0
  8  9  1  0
  9 10  1  0
 10 11  1  0
 11 12  1  0
 12 13  1  0
 13 14  1  0
  8 15  1  0
 15 16  2  0
 16 17  1  0
 17 18  1  0
 18 19  1  0
 19 20  1  0
 20 21  1  0
 21 22  2  0
 22 23  1  0
 23 24  2  0
  5 25  2  0
 25  1  1  0
 16  6  1  0
 24 20  1  0
 14  9  1  0
M  END
>  <cnnaffinity>  (416) 
-6.07101

>  <filename>  (416) 
c1cncc(-n2nc(C3CCOCC3)nc2CCCn2cccc2)c1

>  <enamine_id>  (416) 
PV-006803825211

$$$$

     RDKit          3D

 27 30  0  0  0  0  0  0  0  0999 V2000
    6.5004    3.6627   26.8432 C   0  0  0  0  0  0  0  0  0  0  0  0
    7.0196    3.8546   25.4303 C   0  0  0  0  0  0  0  0  0  0  0  0
    6.8588    5.1088   24.8210 C   0  0  0  0  0  0  0  0  0  0  0  0
    7.3118    5.3286   23.5220 C   0  0  0  0  0  0  0  0  0  0  0  0
    7.9288    4.3013   22.8040 C   0  0  0  0  0  0  0  0  0  0  0  0
    8.0952    3.0417   23.3976 C   0  0  0  0  0  0  0  0  0  0  0  0
    8.7056    1.9931   22.7604 O   0  0  0  0  0  0  0  0  0  0  0  0
    9.0030    2.0229   21.3706 C   0  0  0  0  0  0  0  0  0  0  0  0
    9.5180    0.6346   20.9740 C   0  0  0  0  0  0  0  0  0  0  0  0
    8.6310   -0.4567   21.4384 C   0  0  0  0  0  0  0  0  0  0  0  0
    8.8749   -1.2780   22.4400 N   0  0  0  0  0  0  0  0  0  0  0  0
    7.6939   -1.9228   22.5889 C   0  0  0  0  0  0  0  0  0  0  0  0
    7.4350   -2.8414   23.7313 C   0  0  1  0  0  0  0  0  0  0  0  0
    6.5567   -2.2235   24.8503 C   0  0  0  0  0  0  0  0  0  0  0  0
    5.8419   -3.4378   25.4508 C   0  0  0  0  0  0  0  0  0  0  0  0
    5.9577   -4.4945   24.5081 O   0  0  0  0  0  0  0  0  0  0  0  0
    6.6529   -4.1021   23.3420 C   0  0  0  0  0  0  0  0  0  0  0  0
    6.7552   -1.5846   21.7236 N   0  0  0  0  0  0  0  0  0  0  0  0
    7.3718   -0.6503   20.9535 N   0  0  0  0  0  0  0  0  0  0  0  0
    6.6623    0.0114   19.9074 C   0  0  0  0  0  0  0  0  0  0  0  0
    5.4408    0.6421   20.1690 C   0  0  0  0  0  0  0  0  0  0  0  0
    4.8129    1.3080   19.1112 C   0  0  0  0  0  0  0  0  0  0  0  0
    5.4008    1.2956   17.8391 C   0  0  0  0  0  0  0  0  0  0  0  0
    6.5608    0.6738   17.5794 N   0  0  0  0  0  0  0  0  0  0  0  0
    7.1715    0.0553   18.5969 C   0  0  0  0  0  0  0  0  0  0  0  0
    7.6580    2.8057   24.7285 C   0  0  0  0  0  0  0  0  0  0  0  0
    7.8214    1.4470   25.3897 C   0  0  0  0  0  0  0  0  0  0  0  0
  1  2  1  0
  2  3  2  0
  3  4  1  0
  4  5  2  0
  5  6  1  0
  6  7  1  0
  7  8  1  0
  8  9  1  0
  9 10  1  0
 10 11  2  0
 11 12  1  0
 13 12  1  6
 13 14  1  0
 14 15  1  0
 15 16  1  0
 16 17  1  0
 12 18  2  0
 18 19  1  0
 19 20  1  0
 20 21  2  0
 21 22  1  0
 22 23  2  0
 23 24  1  0
 24 25  2  0
  6 26  2  0
 26 27  1  0
 26  2  1  0
 19 10  1  0
 25 20  1  0
 17 13  1  0
M  END
>  <cnnaffinity>  (417) 
-6.07063

>  <filename>  (417) 
Cc1cccc(OCCc2nc(C3CCOC3)nn2-c2cccnc2)c1C

>  <enamine_id>  (417) 
PV-006941833454

$$$$

     RDKit          3D

 25 28  0  0  0  0  0  0  0  0999 V2000
    9.8238    1.5306   24.4275 F   0  0  0  0  0  0  0  0  0  0  0  0
    8.5699    1.4734   24.9106 C   0  0  0  0  0  0  0  0  0  0  0  0
    8.4158    1.3997   26.2901 C   0  0  0  0  0  0  0  0  0  0  0  0
    7.1269    1.3686   26.8255 C   0  0  0  0  0  0  0  0  0  0  0  0
    6.0181    1.3687   25.9772 C   0  0  0  0  0  0  0  0  0  0  0  0
    6.2312    1.4039   24.5974 C   0  0  0  0  0  0  0  0  0  0  0  0
    5.1487    1.3696   23.7922 F   0  0  0  0  0  0  0  0  0  0  0  0
    7.5001    1.4571   24.0070 C   0  0  0  0  0  0  0  0  0  0  0  0
    7.7256    1.3037   22.5090 C   0  0  0  0  0  0  0  0  0  0  0  0
    7.7159   -0.1383   22.0781 C   0  0  0  0  0  0  0  0  0  0  0  0
    8.2861   -1.1013   22.7783 N   0  0  0  0  0  0  0  0  0  0  0  0
    8.1723   -2.1798   21.9852 C   0  0  0  0  0  0  0  0  0  0  0  0
    8.7865   -3.4820   22.3661 C   0  0  1  0  0  0  0  0  0  0  0  0
    8.8676   -3.8780   23.8634 C   0  0  0  0  0  0  0  0  0  0  0  0
    8.7013   -5.4151   23.8326 C   0  0  0  0  0  0  0  0  0  0  0  0
    8.5867   -5.7842   22.4664 O   0  0  0  0  0  0  0  0  0  0  0  0
    8.0638   -4.6825   21.7591 C   0  0  0  0  0  0  0  0  0  0  0  0
    7.5927   -1.9579   20.8145 N   0  0  0  0  0  0  0  0  0  0  0  0
    7.2725   -0.6398   20.8871 N   0  0  0  0  0  0  0  0  0  0  0  0
    6.5733    0.0063   19.8268 C   0  0  0  0  0  0  0  0  0  0  0  0
    5.3817    0.6988   20.0683 C   0  0  0  0  0  0  0  0  0  0  0  0
    4.7666    1.3620   18.9994 C   0  0  0  0  0  0  0  0  0  0  0  0
    5.3785    1.3277   17.7435 C   0  0  0  0  0  0  0  0  0  0  0  0
    6.5090    0.6409   17.5018 N   0  0  0  0  0  0  0  0  0  0  0  0
    7.0805   -0.0190   18.5150 C   0  0  0  0  0  0  0  0  0  0  0  0
  1  2  1  0
  2  3  2  0
  3  4  1  0
  4  5  2  0
  5  6  1  0
  6  7  1  0
  6  8  2  0
  8  9  1  0
  9 10  1  0
 10 11  2  0
 11 12  1  0
 13 12  1  1
 13 14  1  0
 14 15  1  0
 15 16  1  0
 16 17  1  0
 12 18  2  0
 18 19  1  0
 19 20  1  0
 20 21  2  0
 21 22  1  0
 22 23  2  0
 23 24  1  0
 24 25  2  0
  8  2  1  0
 19 10  1  0
 25 20  1  0
 17 13  1  0
M  END
>  <cnnaffinity>  (418) 
-6.06894

>  <filename>  (418) 
Fc1cccc(F)c1Cc1nc(C2CCOC2)nn1-c1cccnc1

>  <enamine_id>  (418) 
PV-007170720425

$$$$

     RDKit          3D

 26 29  0  0  0  0  0  0  0  0999 V2000
   11.0739    4.4717   23.1250 Cl  0  0  0  0  0  0  0  0  0  0  0  0
    9.3574    4.6616   23.3842 C   0  0  0  0  0  0  0  0  0  0  0  0
    8.8862    5.9420   23.6865 C   0  0  0  0  0  0  0  0  0  0  0  0
    7.5162    6.1386   23.8744 C   0  0  0  0  0  0  0  0  0  0  0  0
    6.6280    5.0667   23.7501 C   0  0  0  0  0  0  0  0  0  0  0  0
    7.1197    3.7961   23.4494 C   0  0  0  0  0  0  0  0  0  0  0  0
    8.4921    3.5588   23.2756 C   0  0  0  0  0  0  0  0  0  0  0  0
    8.9689    2.1826   22.8877 C   0  0  0  0  0  0  0  0  0  0  0  0
    9.0333    2.0160   21.3633 C   0  0  0  0  0  0  0  0  0  0  0  0
    9.5231    0.6195   20.9460 C   0  0  0  0  0  0  0  0  0  0  0  0
    8.6289   -0.4736   21.4299 C   0  0  0  0  0  0  0  0  0  0  0  0
    8.8513   -1.2867   22.4440 N   0  0  0  0  0  0  0  0  0  0  0  0
    7.6738   -1.9474   22.5745 C   0  0  0  0  0  0  0  0  0  0  0  0
    7.4110   -2.9067   23.6937 C   0  0  2  0  0  0  0  0  0  0  0  0
    7.2485   -2.1814   25.0575 C   0  0  0  0  0  0  0  0  0  0  0  0
    8.6686   -2.1973   25.6486 C   0  0  0  0  0  0  0  0  0  0  0  0
    9.4001   -3.1748   24.9334 O   0  0  0  0  0  0  0  0  0  0  0  0
    8.6063   -3.8322   23.9693 C   0  0  0  0  0  0  0  0  0  0  0  0
    6.7461   -1.6100   21.7037 N   0  0  0  0  0  0  0  0  0  0  0  0
    7.3657   -0.6670   20.9422 N   0  0  0  0  0  0  0  0  0  0  0  0
    6.6615    0.0092   19.9044 C   0  0  0  0  0  0  0  0  0  0  0  0
    5.4413    0.6442   20.1658 C   0  0  0  0  0  0  0  0  0  0  0  0
    4.8125    1.3102   19.1092 C   0  0  0  0  0  0  0  0  0  0  0  0
    5.4003    1.2962   17.8376 C   0  0  0  0  0  0  0  0  0  0  0  0
    6.5598    0.6735   17.5769 N   0  0  0  0  0  0  0  0  0  0  0  0
    7.1703    0.0550   18.5945 C   0  0  0  0  0  0  0  0  0  0  0  0
  1  2  1  0
  2  3  2  0
  3  4  1  0
  4  5  2  0
  5  6  1  0
  6  7  2  0
  7  8  1  0
  8  9  1  0
  9 10  1  0
 10 11  1  0
 11 12  2  0
 12 13  1  0
 14 13  1  6
 14 15  1  0
 15 16  1  0
 16 17  1  0
 17 18  1  0
 13 19  2  0
 19 20  1  0
 20 21  1  0
 21 22  2  0
 22 23  1  0
 23 24  2  0
 24 25  1  0
 25 26  2  0
  7  2  1  0
 20 11  1  0
 26 21  1  0
 18 14  1  0
M  END
>  <cnnaffinity>  (419) 
-6.06883

>  <filename>  (419) 
Clc1ccccc1CCCc1nc(C2CCOC2)nn1-c1cccnc1

>  <enamine_id>  (419) 
PV-006831359875

$$$$

     RDKit          3D

 26 29  0  0  0  0  0  0  0  0999 V2000
    9.2536    4.3667   25.3820 C   0  0  0  0  0  0  0  0  0  0  0  0
    9.5795    3.3550   24.3106 C   0  0  0  0  0  0  0  0  0  0  0  0
    8.6304    2.9669   23.3641 C   0  0  0  0  0  0  0  0  0  0  0  0
    8.9425    2.0228   22.3815 C   0  0  0  0  0  0  0  0  0  0  0  0
   10.2092    1.4315   22.3381 C   0  0  0  0  0  0  0  0  0  0  0  0
   10.5691    0.4842   21.4120 O   0  0  0  0  0  0  0  0  0  0  0  0
    9.5713   -0.0474   20.5634 C   0  0  0  0  0  0  0  0  0  0  0  0
    8.5058   -0.8352   21.2692 C   0  0  0  0  0  0  0  0  0  0  0  0
    8.6954   -1.6046   22.3135 N   0  0  0  0  0  0  0  0  0  0  0  0
    7.4507   -2.0738   22.5864 C   0  0  0  0  0  0  0  0  0  0  0  0
    7.2473   -2.9453   23.7737 C   0  0  2  0  0  0  0  0  0  0  0  0
    7.5885   -2.3041   25.1505 C   0  0  0  0  0  0  0  0  0  0  0  0
    7.9392   -3.5325   26.0168 C   0  0  0  0  0  0  0  0  0  0  0  0
    8.1272   -4.6219   25.1198 O   0  0  0  0  0  0  0  0  0  0  0  0
    8.2323   -4.1236   23.8027 C   0  0  0  0  0  0  0  0  0  0  0  0
    6.5149   -1.6782   21.7484 N   0  0  0  0  0  0  0  0  0  0  0  0
    7.1998   -0.8873   20.8771 N   0  0  0  0  0  0  0  0  0  0  0  0
    6.5340   -0.1856   19.8327 C   0  0  0  0  0  0  0  0  0  0  0  0
    5.3681    0.5448   20.0944 C   0  0  0  0  0  0  0  0  0  0  0  0
    4.8234    1.3117   19.0596 C   0  0  0  0  0  0  0  0  0  0  0  0
    5.4437    1.3019   17.8038 C   0  0  0  0  0  0  0  0  0  0  0  0
    6.5269    0.5597   17.5313 N   0  0  0  0  0  0  0  0  0  0  0  0
    7.0496   -0.1700   18.5229 C   0  0  0  0  0  0  0  0  0  0  0  0
   11.1901    1.7937   23.2807 C   0  0  0  0  0  0  0  0  0  0  0  0
   12.5521    1.1479   23.3094 C   0  0  0  0  0  0  0  0  0  0  0  0
   10.8520    2.7608   24.2264 C   0  0  0  0  0  0  0  0  0  0  0  0
  1  2  1  0
  2  3  2  0
  3  4  1  0
  4  5  2  0
  5  6  1  0
  6  7  1  0
  7  8  1  0
  8  9  2  0
  9 10  1  0
 11 10  1  6
 11 12  1  0
 12 13  1  0
 13 14  1  0
 14 15  1  0
 10 16  2  0
 16 17  1  0
 17 18  1  0
 18 19  2  0
 19 20  1  0
 20 21  2  0
 21 22  1  0
 22 23  2  0
  5 24  1  0
 24 25  1  0
 24 26  2  0
 26  2  1  0
 17  8  1  0
 23 18  1  0
 15 11  1  0
M  END
>  <cnnaffinity>  (420) 
-6.06809

>  <filename>  (420) 
Cc1ccc(OCc2nc(C3CCOC3)nn2-c2cccnc2)c(C)c1

>  <enamine_id>  (420) 
PV-006931872855

$$$$

     RDKit          3D

 24 27  0  0  0  0  0  0  0  0999 V2000
    4.7906    1.3643   19.0224 C   0  0  0  0  0  0  0  0  0  0  0  0
    5.4045    1.3144   17.7683 C   0  0  0  0  0  0  0  0  0  0  0  0
    6.5406    0.6309   17.5373 N   0  0  0  0  0  0  0  0  0  0  0  0
    7.1148    0.0026   18.5693 C   0  0  0  0  0  0  0  0  0  0  0  0
    6.6220    0.0682   19.8861 C   0  0  0  0  0  0  0  0  0  0  0  0
    7.3343   -0.5670   20.9459 N   0  0  0  0  0  0  0  0  0  0  0  0
    7.6557   -1.8833   20.8490 N   0  0  0  0  0  0  0  0  0  0  0  0
    8.1729   -2.1555   22.0368 C   0  0  0  0  0  0  0  0  0  0  0  0
    8.7212   -3.5127   22.3988 C   0  0  0  0  0  0  0  0  0  0  0  0
    8.0018   -4.7061   21.7402 C   0  0  0  0  0  0  0  0  0  0  0  0
    8.3997   -5.9382   22.5595 C   0  0  0  0  0  0  0  0  0  0  0  0
    8.6785   -5.4104   23.9851 C   0  0  0  0  0  0  0  0  0  0  0  0
    8.7292   -3.8700   23.8960 C   0  0  0  0  0  0  0  0  0  0  0  0
    8.2624   -1.0887   22.8676 N   0  0  0  0  0  0  0  0  0  0  0  0
    7.7504   -0.0949   22.1599 C   0  0  0  0  0  0  0  0  0  0  0  0
    7.7454    1.3315   22.6429 C   0  0  0  0  0  0  0  0  0  0  0  0
    7.2243    1.4615   24.0873 C   0  0  0  0  0  0  0  0  0  0  0  0
    5.7882    0.9208   24.1921 C   0  0  0  0  0  0  0  0  0  0  0  0
    5.1945    0.9732   25.5172 N   0  0  0  0  0  0  0  0  0  0  0  0
    5.2074   -0.0743   26.4066 C   0  0  0  0  0  0  0  0  0  0  0  0
    4.6795    0.3559   27.5983 C   0  0  0  0  0  0  0  0  0  0  0  0
    4.3087    1.7140   27.4224 C   0  0  0  0  0  0  0  0  0  0  0  0
    4.6254    2.0612   26.1322 C   0  0  0  0  0  0  0  0  0  0  0  0
    5.4108    0.7385   20.1100 C   0  0  0  0  0  0  0  0  0  0  0  0
  1  2  2  0
  2  3  1  0
  3  4  2  0
  4  5  1  0
  5  6  1  0
  6  7  1  0
  7  8  2  0
  8  9  1  0
  9 10  1  0
 10 11  1  0
 11 12  1  0
 12 13  1  0
  8 14  1  0
 14 15  2  0
 15 16  1  0
 16 17  1  0
 17 18  1  0
 18 19  1  0
 19 20  1  0
 20 21  2  0
 21 22  1  0
 22 23  2  0
  5 24  2  0
 24  1  1  0
 15  6  1  0
 23 19  1  0
 13  9  1  0
M  END
>  <cnnaffinity>  (421) 
-6.06479

>  <filename>  (421) 
c1cncc(-n2nc(C3CCCC3)nc2CCCn2cccc2)c1

>  <enamine_id>  (421) 
PV-006770549497

$$$$

     RDKit          3D

 21 23  0  0  0  0  0  0  0  0999 V2000
    8.6589   -3.5670   22.2249 C   0  0  0  0  0  0  0  0  0  0  0  0
    8.1606   -2.1966   21.9604 C   0  0  0  0  0  0  0  0  0  0  0  0
    7.7108   -1.8488   20.7758 N   0  0  0  0  0  0  0  0  0  0  0  0
    7.3229   -0.5666   20.9612 N   0  0  0  0  0  0  0  0  0  0  0  0
    6.6389    0.0833   19.9078 C   0  0  0  0  0  0  0  0  0  0  0  0
    5.4052    0.7021   20.1273 C   0  0  0  0  0  0  0  0  0  0  0  0
    4.7860    1.3245   19.0415 C   0  0  0  0  0  0  0  0  0  0  0  0
    5.4165    1.2925   17.7948 C   0  0  0  0  0  0  0  0  0  0  0  0
    6.5671    0.6292   17.5651 N   0  0  0  0  0  0  0  0  0  0  0  0
    7.1541    0.0237   18.6011 C   0  0  0  0  0  0  0  0  0  0  0  0
    7.6033   -0.1898   22.2505 C   0  0  0  0  0  0  0  0  0  0  0  0
    7.3656    1.1541   22.8800 C   0  0  0  0  0  0  0  0  0  0  0  0
    8.6202    1.7293   23.5141 C   0  0  0  0  0  0  0  0  0  0  0  0
    9.6410    2.2861   22.7245 C   0  0  0  0  0  0  0  0  0  0  0  0
    9.4093    2.4515   21.0277 Cl  0  0  0  0  0  0  0  0  0  0  0  0
   10.8693    2.6684   23.2783 C   0  0  0  0  0  0  0  0  0  0  0  0
   11.1406    2.5202   24.5776 N   0  0  0  0  0  0  0  0  0  0  0  0
   10.1802    2.0025   25.3542 C   0  0  0  0  0  0  0  0  0  0  0  0
    8.9217    1.6297   24.8749 C   0  0  0  0  0  0  0  0  0  0  0  0
    8.0160    1.1625   25.7512 F   0  0  0  0  0  0  0  0  0  0  0  0
    8.1273   -1.2130   22.8972 N   0  0  0  0  0  0  0  0  0  0  0  0
  1  2  1  0
  2  3  2  0
  3  4  1  0
  4  5  1  0
  5  6  2  0
  6  7  1  0
  7  8  2  0
  8  9  1  0
  9 10  2  0
  4 11  1  0
 11 12  1  0
 12 13  1  0
 13 14  2  0
 14 15  1  0
 14 16  1  0
 16 17  2  0
 17 18  1  0
 18 19  2  0
 19 20  1  0
 11 21  2  0
 21  2  1  0
 10  5  1  0
 19 13  1  0
M  END
>  <cnnaffinity>  (422) 
-6.06473

>  <filename>  (422) 
Cc1nc(Cc2c(F)cncc2Cl)n(-c2cccnc2)n1

>  <enamine_id>  (422) 
PV-006803576221

$$$$

     RDKit          3D

 25 28  0  0  0  0  0  0  0  0999 V2000
    6.0595    5.8027   24.8004 C   0  0  0  0  0  0  0  0  0  0  0  0
    5.4277    4.4322   24.7757 C   0  0  0  0  0  0  0  0  0  0  0  0
    4.2060    4.1835   25.4083 C   0  0  0  0  0  0  0  0  0  0  0  0
    3.6427    2.8993   25.4230 C   0  0  0  0  0  0  0  0  0  0  0  0
    4.2984    1.8627   24.7855 C   0  0  0  0  0  0  0  0  0  0  0  0
    3.7864    0.6212   24.8460 F   0  0  0  0  0  0  0  0  0  0  0  0
    5.4883    2.1002   24.0723 C   0  0  0  0  0  0  0  0  0  0  0  0
    5.9711    1.0658   23.3419 O   0  0  0  0  0  0  0  0  0  0  0  0
    7.2628    1.1833   22.7551 C   0  0  0  0  0  0  0  0  0  0  0  0
    7.5943   -0.1529   22.2144 C   0  0  0  0  0  0  0  0  0  0  0  0
    8.2008   -1.0874   22.9067 N   0  0  0  0  0  0  0  0  0  0  0  0
    8.3265   -2.0920   22.0041 C   0  0  0  0  0  0  0  0  0  0  0  0
    9.0727   -3.3194   22.3330 C   0  0  0  0  0  0  0  0  0  0  0  0
    8.6497   -4.1499   23.5798 C   0  0  0  0  0  0  0  0  0  0  0  0
   10.0608   -3.9518   24.1787 C   0  0  0  0  0  0  0  0  0  0  0  0
   10.4500   -3.0302   23.0079 C   0  0  0  0  0  0  0  0  0  0  0  0
    7.8380   -1.8386   20.8086 N   0  0  0  0  0  0  0  0  0  0  0  0
    7.3282   -0.5892   20.9556 N   0  0  0  0  0  0  0  0  0  0  0  0
    6.6213    0.0477   19.9060 C   0  0  0  0  0  0  0  0  0  0  0  0
    5.4097    0.7011   20.1523 C   0  0  0  0  0  0  0  0  0  0  0  0
    4.7881    1.3358   19.0737 C   0  0  0  0  0  0  0  0  0  0  0  0
    5.4021    1.3008   17.8182 C   0  0  0  0  0  0  0  0  0  0  0  0
    6.5533    0.6459   17.5790 N   0  0  0  0  0  0  0  0  0  0  0  0
    7.1394    0.0200   18.6024 C   0  0  0  0  0  0  0  0  0  0  0  0
    6.0616    3.3743   24.1081 C   0  0  0  0  0  0  0  0  0  0  0  0
  1  2  1  0
  2  3  2  0
  3  4  1  0
  4  5  2  0
  5  6  1  0
  5  7  1  0
  7  8  1  0
  8  9  1  0
  9 10  1  0
 10 11  2  0
 11 12  1  0
 12 13  1  0
 13 14  1  0
 14 15  1  0
 15 16  1  0
 12 17  2  0
 17 18  1  0
 18 19  1  0
 19 20  2  0
 20 21  1  0
 21 22  2  0
 22 23  1  0
 23 24  2  0
  7 25  2  0
 25  2  1  0
 18 10  1  0
 24 19  1  0
 16 13  1  0
M  END
>  <cnnaffinity>  (423) 
-6.06473

>  <filename>  (423) 
Cc1ccc(F)c(OCc2nc(C3CCC3)nn2-c2cccnc2)c1

>  <enamine_id>  (423) 
PV-006811511840

$$$$

     RDKit          3D

 26 29  0  0  0  0  0  0  0  0999 V2000
    8.1312    2.4677   21.6657 C   0  0  0  0  0  0  0  0  0  0  0  0
    9.5086    1.8262   21.8320 C   0  0  2  0  0  0  0  0  0  0  0  0
    9.6011    0.5225   20.9712 C   0  0  0  0  0  0  0  0  0  0  0  0
    8.6528   -0.5715   21.3485 C   0  0  0  0  0  0  0  0  0  0  0  0
    8.9149   -1.5014   22.2431 N   0  0  0  0  0  0  0  0  0  0  0  0
    7.7100   -2.0910   22.4534 C   0  0  0  0  0  0  0  0  0  0  0  0
    7.4833   -3.1288   23.4960 C   0  0  0  0  0  0  0  0  0  0  0  0
    8.3484   -3.5495   24.3857 N   0  0  0  0  0  0  0  0  0  0  0  0
    7.7406   -4.5040   25.1511 N   0  0  0  0  0  0  0  0  0  0  0  0
    6.5157   -4.6464   24.7187 C   0  0  0  0  0  0  0  0  0  0  0  0
    6.2979   -3.8068   23.6737 N   0  0  0  0  0  0  0  0  0  0  0  0
    6.7297   -1.6352   21.6842 N   0  0  0  0  0  0  0  0  0  0  0  0
    7.3478   -0.6838   20.9322 N   0  0  0  0  0  0  0  0  0  0  0  0
    6.6480   -0.0162   19.8810 C   0  0  0  0  0  0  0  0  0  0  0  0
    5.4305    0.6268   20.1357 C   0  0  0  0  0  0  0  0  0  0  0  0
    4.8025    1.3107   19.0895 C   0  0  0  0  0  0  0  0  0  0  0  0
    5.3963    1.3109   17.8241 C   0  0  0  0  0  0  0  0  0  0  0  0
    6.5415    0.6651   17.5586 N   0  0  0  0  0  0  0  0  0  0  0  0
    7.1514    0.0225   18.5637 C   0  0  0  0  0  0  0  0  0  0  0  0
    9.8727    1.5961   23.2974 C   0  0  0  0  0  0  0  0  0  0  0  0
   11.2142    1.6971   23.7018 C   0  0  0  0  0  0  0  0  0  0  0  0
   11.6047    1.3115   24.9853 C   0  0  0  0  0  0  0  0  0  0  0  0
   10.6631    0.8333   25.9017 C   0  0  0  0  0  0  0  0  0  0  0  0
    9.3307    0.7954   25.5095 C   0  0  0  0  0  0  0  0  0  0  0  0
    8.4045    0.3677   26.3865 F   0  0  0  0  0  0  0  0  0  0  0  0
    8.9186    1.1718   24.2372 C   0  0  0  0  0  0  0  0  0  0  0  0
  2  1  1  1
  2  3  1  0
  3  4  1  0
  4  5  2  0
  5  6  1  0
  6  7  1  0
  7  8  2  0
  8  9  1  0
  9 10  2  0
 10 11  1  0
  6 12  2  0
 12 13  1  0
 13 14  1  0
 14 15  2  0
 15 16  1  0
 16 17  2  0
 17 18  1  0
 18 19  2  0
  2 20  1  0
 20 21  2  0
 21 22  1  0
 22 23  2  0
 23 24  1  0
 24 25  1  0
 24 26  2  0
 13  4  1  0
 19 14  1  0
 26 20  1  0
 11  7  1  0
M  END
>  <cnnaffinity>  (424) 
-6.06358

>  <filename>  (424) 
CC(Cc1nc(-c2nnc[nH]2)nn1-c1cccnc1)c1cccc(F)c1

>  <enamine_id>  (424) 
PV-006797878149

$$$$

     RDKit          3D

 26 29  0  0  0  0  0  0  0  0999 V2000
   11.6838    0.1607   22.9001 C   0  0  0  0  0  0  0  0  0  0  0  0
   10.6628    0.9249   23.4761 C   0  0  0  0  0  0  0  0  0  0  0  0
    9.4661    0.3251   23.8844 C   0  0  0  0  0  0  0  0  0  0  0  0
    9.2994   -1.0620   23.7524 C   0  0  0  0  0  0  0  0  0  0  0  0
    8.0625   -1.6560   24.1460 N   0  0  0  0  0  0  0  0  0  0  0  0
    7.3804   -1.2799   25.2678 N   0  0  0  0  0  0  0  0  0  0  0  0
    6.3293   -2.0730   25.2548 C   0  0  0  0  0  0  0  0  0  0  0  0
    5.2249   -1.9859   26.2845 C   0  0  0  0  0  0  0  0  0  0  0  0
    4.8005   -3.3795   26.8000 C   0  0  0  0  0  0  0  0  0  0  0  0
    3.5981   -3.2813   27.7435 C   0  0  0  0  0  0  0  0  0  0  0  0
    2.5004   -2.5952   27.1630 O   0  0  0  0  0  0  0  0  0  0  0  0
    2.8202   -1.2749   26.7560 C   0  0  0  0  0  0  0  0  0  0  0  0
    3.9593   -1.2697   25.7334 C   0  0  0  0  0  0  0  0  0  0  0  0
    6.2708   -2.9222   24.1902 N   0  0  0  0  0  0  0  0  0  0  0  0
    7.3488   -2.6113   23.4943 C   0  0  0  0  0  0  0  0  0  0  0  0
    7.5866   -3.0696   22.0917 C   0  0  0  0  0  0  0  0  0  0  0  0
    6.8451   -2.1896   21.0640 C   0  0  0  0  0  0  0  0  0  0  0  0
    7.3540   -0.7413   20.9777 C   0  0  0  0  0  0  0  0  0  0  0  0
    6.6682    0.0434   19.8791 C   0  0  0  0  0  0  0  0  0  0  0  0
    5.4500    0.7005   20.1124 C   0  0  0  0  0  0  0  0  0  0  0  0
    4.8058    1.3414   19.0537 C   0  0  0  0  0  0  0  0  0  0  0  0
    5.4051    1.3194   17.7919 C   0  0  0  0  0  0  0  0  0  0  0  0
    6.5698    0.7068   17.5389 N   0  0  0  0  0  0  0  0  0  0  0  0
    7.1756    0.0920   18.5665 C   0  0  0  0  0  0  0  0  0  0  0  0
   10.3450   -1.8447   23.2268 C   0  0  0  0  0  0  0  0  0  0  0  0
   11.5046   -1.2181   22.7549 C   0  0  0  0  0  0  0  0  0  0  0  0
  1  2  2  0
  2  3  1  0
  3  4  2  0
  4  5  1  0
  5  6  1  0
  6  7  2  0
  7  8  1  0
  8  9  1  0
  9 10  1  0
 10 11  1  0
 11 12  1  0
 12 13  1  0
  7 14  1  0
 14 15  2  0
 15 16  1  0
 16 17  1  0
 17 18  1  0
 18 19  1  0
 19 20  2  0
 20 21  1  0
 21 22  2  0
 22 23  1  0
 23 24  2  0
  4 25  1  0
 25 26  2  0
 26  1  1  0
 15  5  1  0
 24 19  1  0
 13  8  1  0
M  END
>  <cnnaffinity>  (425) 
-6.06354

>  <filename>  (425) 
c1ccc(-n2nc(C3CCOCC3)nc2CCCc2cccnc2)cc1

>  <enamine_id>  (425) 
PV-003790731919

$$$$

     RDKit          3D

 23 26  0  0  0  0  0  0  0  0999 V2000
    4.8137    1.3051   19.1128 C   0  0  0  0  0  0  0  0  0  0  0  0
    5.4027    1.2925   17.8427 C   0  0  0  0  0  0  0  0  0  0  0  0
    6.5602    0.6685   17.5806 N   0  0  0  0  0  0  0  0  0  0  0  0
    7.1750    0.0486   18.5944 C   0  0  0  0  0  0  0  0  0  0  0  0
    6.6704    0.0087   19.9051 C   0  0  0  0  0  0  0  0  0  0  0  0
    7.3729   -0.6590   20.9497 N   0  0  0  0  0  0  0  0  0  0  0  0
    6.7411   -1.5999   21.6989 N   0  0  0  0  0  0  0  0  0  0  0  0
    7.6686   -1.9695   22.5583 C   0  0  0  0  0  0  0  0  0  0  0  0
    7.4243   -2.9659   23.6436 C   0  0  0  0  0  0  0  0  0  0  0  0
    6.3034   -2.5485   24.6428 C   0  0  0  0  0  0  0  0  0  0  0  0
    5.2919   -4.0056   24.2091 S   0  0  0  0  0  0  0  0  0  0  0  0
    6.7623   -4.2867   23.1649 C   0  0  0  0  0  0  0  0  0  0  0  0
    8.8563   -1.3312   22.4279 N   0  0  0  0  0  0  0  0  0  0  0  0
    8.6399   -0.4913   21.4303 C   0  0  0  0  0  0  0  0  0  0  0  0
    9.5456    0.5888   20.9415 C   0  0  0  0  0  0  0  0  0  0  0  0
    9.0621    2.0089   21.3046 C   0  0  0  0  0  0  0  0  0  0  0  0
    8.8840    2.2343   22.8258 C   0  0  0  0  0  0  0  0  0  0  0  0
   10.1485    2.0142   23.6189 C   0  0  0  0  0  0  0  0  0  0  0  0
   10.4497    0.9829   24.4640 C   0  0  0  0  0  0  0  0  0  0  0  0
   11.8154    0.9807   24.8951 C   0  0  0  0  0  0  0  0  0  0  0  0
   12.5240    1.9945   24.3291 C   0  0  0  0  0  0  0  0  0  0  0  0
   11.5385    3.0100   23.3626 S   0  0  0  0  0  0  0  0  0  0  0  0
    5.4475    0.6378   20.1670 C   0  0  0  0  0  0  0  0  0  0  0  0
  1  2  2  0
  2  3  1  0
  3  4  2  0
  4  5  1  0
  5  6  1  0
  6  7  1  0
  7  8  2  0
  8  9  1  0
  9 10  1  0
 10 11  1  0
 11 12  1  0
  8 13  1  0
 13 14  2  0
 14 15  1  0
 15 16  1  0
 16 17  1  0
 17 18  1  0
 18 19  2  0
 19 20  1  0
 20 21  2  0
 21 22  1  0
  5 23  2  0
 23  1  1  0
 14  6  1  0
 22 18  1  0
 12  9  1  0
M  END
>  <cnnaffinity>  (426) 
-6.06346

>  <filename>  (426) 
c1cncc(-n2nc(C3CSC3)nc2CCCc2cccs2)c1

>  <enamine_id>  (426) 
PV-006919007263

$$$$

     RDKit          3D

 25 28  0  0  0  0  0  0  0  0999 V2000
   10.1632    1.3185   23.9457 O   0  0  0  0  0  0  0  0  0  0  0  0
    9.4396    2.1174   23.3618 C   0  0  0  0  0  0  0  0  0  0  0  0
    8.9070    3.3329   23.9619 C   0  0  0  0  0  0  0  0  0  0  0  0
    8.0903    4.1881   23.2832 C   0  0  0  0  0  0  0  0  0  0  0  0
    7.6806    3.8742   21.9488 C   0  0  0  0  0  0  0  0  0  0  0  0
    8.1539    2.7342   21.3752 C   0  0  0  0  0  0  0  0  0  0  0  0
    9.0602    1.9148   22.0017 N   0  0  0  0  0  0  0  0  0  0  0  0
    9.5311    0.7199   21.2712 C   0  0  0  0  0  0  0  0  0  0  0  0
    8.6589   -0.4922   21.4900 C   0  0  0  0  0  0  0  0  0  0  0  0
    8.8922   -1.4069   22.4048 N   0  0  0  0  0  0  0  0  0  0  0  0
    7.6911   -2.0232   22.5608 C   0  0  0  0  0  0  0  0  0  0  0  0
    7.4066   -3.0089   23.6678 C   0  0  0  0  0  0  0  0  0  0  0  0
    6.7488   -2.2982   24.8897 C   0  0  0  0  0  0  0  0  0  0  0  0
    7.7582   -1.4547   25.6826 C   0  0  0  0  0  0  0  0  0  0  0  0
    8.9261   -2.3218   26.1738 C   0  0  0  0  0  0  0  0  0  0  0  0
    9.6403   -2.9792   24.9854 C   0  0  0  0  0  0  0  0  0  0  0  0
    8.6691   -3.7948   24.1083 C   0  0  0  0  0  0  0  0  0  0  0  0
    6.7541   -1.6022   21.7330 N   0  0  0  0  0  0  0  0  0  0  0  0
    7.3899   -0.6363   21.0085 N   0  0  0  0  0  0  0  0  0  0  0  0
    6.7006    0.0121   19.9404 C   0  0  0  0  0  0  0  0  0  0  0  0
    5.4636    0.6243   20.1750 C   0  0  0  0  0  0  0  0  0  0  0  0
    4.8385    1.2854   19.1130 C   0  0  0  0  0  0  0  0  0  0  0  0
    5.4405    1.2836   17.8493 C   0  0  0  0  0  0  0  0  0  0  0  0
    6.5942    0.6442   17.6021 N   0  0  0  0  0  0  0  0  0  0  0  0
    7.1994    0.0230   18.6247 C   0  0  0  0  0  0  0  0  0  0  0  0
  1  2  2  0
  2  3  1  0
  3  4  2  0
  4  5  1  0
  5  6  2  0
  6  7  1  0
  7  8  1  0
  8  9  1  0
  9 10  2  0
 10 11  1  0
 11 12  1  0
 12 13  1  0
 13 14  1  0
 14 15  1  0
 15 16  1  0
 16 17  1  0
 11 18  2  0
 18 19  1  0
 19 20  1  0
 20 21  2  0
 21 22  1  0
 22 23  2  0
 23 24  1  0
 24 25  2  0
  7  2  1  0
 19  9  1  0
 25 20  1  0
 17 12  1  0
M  END
>  <cnnaffinity>  (427) 
-6.06329

>  <filename>  (427) 
O=c1ccccn1Cc1nc(C2CCCCC2)nn1-c1cccnc1

>  <enamine_id>  (427) 
PV-006716997129

$$$$

     RDKit          3D

 25 28  0  0  0  0  0  0  0  0999 V2000
   11.1175    1.3801   23.3705 C   0  0  0  0  0  0  0  0  0  0  0  0
   10.5829    2.8022   23.4286 C   0  0  0  0  0  0  0  0  0  0  0  0
   11.1777    3.7297   24.2930 C   0  0  0  0  0  0  0  0  0  0  0  0
   10.7259    5.0495   24.4008 C   0  0  0  0  0  0  0  0  0  0  0  0
    9.6240    5.4681   23.6527 C   0  0  0  0  0  0  0  0  0  0  0  0
    8.9897    4.5490   22.8109 C   0  0  0  0  0  0  0  0  0  0  0  0
    9.5184    3.2570   22.6241 C   0  0  0  0  0  0  0  0  0  0  0  0
    8.9127    2.4173   21.5160 C   0  0  0  0  0  0  0  0  0  0  0  0
    7.5043    2.2902   21.6736 O   0  0  0  0  0  0  0  0  0  0  0  0
    7.1185    1.3892   22.6964 C   0  0  0  0  0  0  0  0  0  0  0  0
    7.4094   -0.0383   22.3323 C   0  0  0  0  0  0  0  0  0  0  0  0
    8.0818   -0.9152   23.0548 N   0  0  0  0  0  0  0  0  0  0  0  0
    8.3162   -1.9230   22.1724 C   0  0  0  0  0  0  0  0  0  0  0  0
    9.1469   -3.1118   22.4878 C   0  0  0  0  0  0  0  0  0  0  0  0
    8.8579   -3.9509   23.7739 C   0  0  0  0  0  0  0  0  0  0  0  0
   10.3087   -3.7007   24.2530 C   0  0  0  0  0  0  0  0  0  0  0  0
   10.5865   -2.8125   23.0202 C   0  0  0  0  0  0  0  0  0  0  0  0
    7.8260   -1.7223   20.9629 N   0  0  0  0  0  0  0  0  0  0  0  0
    7.2005   -0.5238   21.0749 N   0  0  0  0  0  0  0  0  0  0  0  0
    6.5436    0.0546   19.9567 C   0  0  0  0  0  0  0  0  0  0  0  0
    5.3338    0.7465   20.0981 C   0  0  0  0  0  0  0  0  0  0  0  0
    4.7978    1.3612   18.9636 C   0  0  0  0  0  0  0  0  0  0  0  0
    5.4724    1.2550   17.7452 C   0  0  0  0  0  0  0  0  0  0  0  0
    6.6097    0.5500   17.5940 N   0  0  0  0  0  0  0  0  0  0  0  0
    7.1195   -0.0457   18.6757 C   0  0  0  0  0  0  0  0  0  0  0  0
  1  2  1  0
  2  3  2  0
  3  4  1  0
  4  5  2  0
  5  6  1  0
  6  7  2  0
  7  8  1  0
  8  9  1  0
  9 10  1  0
 10 11  1  0
 11 12  2  0
 12 13  1  0
 13 14  1  0
 14 15  1  0
 15 16  1  0
 16 17  1  0
 13 18  2  0
 18 19  1  0
 19 20  1  0
 20 21  2  0
 21 22  1  0
 22 23  2  0
 23 24  1  0
 24 25  2  0
  7  2  1  0
 19 11  1  0
 25 20  1  0
 17 14  1  0
M  END
>  <cnnaffinity>  (428) 
-6.06223

>  <filename>  (428) 
Cc1ccccc1COCc1nc(C2CCC2)nn1-c1cccnc1

>  <enamine_id>  (428) 
PV-006937412601

$$$$

     RDKit          3D

 23 26  0  0  0  0  0  0  0  0999 V2000
   12.9994    2.2619   23.7763 C   0  0  0  0  0  0  0  0  0  0  0  0
   12.3424    1.0589   24.0403 C   0  0  0  0  0  0  0  0  0  0  0  0
   10.9492    1.0503   23.9343 C   0  0  0  0  0  0  0  0  0  0  0  0
   10.2887    2.2386   23.5910 C   0  0  0  0  0  0  0  0  0  0  0  0
    8.5808    2.2121   23.0661 S   0  0  0  0  0  0  0  0  0  0  0  0
    8.9283    1.9994   21.2850 C   0  0  0  0  0  0  0  0  0  0  0  0
    9.5026    0.6177   20.9201 C   0  0  0  0  0  0  0  0  0  0  0  0
    8.6491   -0.5124   21.3890 C   0  0  0  0  0  0  0  0  0  0  0  0
    8.8937   -1.3727   22.3592 N   0  0  0  0  0  0  0  0  0  0  0  0
    7.6859   -1.9777   22.5427 C   0  0  0  0  0  0  0  0  0  0  0  0
    7.4523   -2.9596   23.6301 C   0  0  0  0  0  0  0  0  0  0  0  0
    6.3346   -2.7604   24.6204 C   0  0  0  0  0  0  0  0  0  0  0  0
    7.7625   -2.6011   25.0621 C   0  0  0  0  0  0  0  0  0  0  0  0
    6.7424   -1.5973   21.7062 N   0  0  0  0  0  0  0  0  0  0  0  0
    7.3707   -0.6693   20.9409 N   0  0  0  0  0  0  0  0  0  0  0  0
    6.6777   -0.0114   19.8904 C   0  0  0  0  0  0  0  0  0  0  0  0
    5.4587    0.6226   20.1548 C   0  0  0  0  0  0  0  0  0  0  0  0
    4.8326    1.3006   19.1071 C   0  0  0  0  0  0  0  0  0  0  0  0
    5.4229    1.3025   17.8378 C   0  0  0  0  0  0  0  0  0  0  0  0
    6.5691    0.6599   17.5676 N   0  0  0  0  0  0  0  0  0  0  0  0
    7.1742    0.0194   18.5745 C   0  0  0  0  0  0  0  0  0  0  0  0
   10.9150    3.4114   23.4622 N   0  0  0  0  0  0  0  0  0  0  0  0
   12.2457    3.4103   23.5401 C   0  0  0  0  0  0  0  0  0  0  0  0
  1  2  2  0
  2  3  1  0
  3  4  2  0
  4  5  1  0
  5  6  1  0
  6  7  1  0
  7  8  1  0
  8  9  2  0
  9 10  1  0
 10 11  1  0
 11 12  1  0
 12 13  1  0
 10 14  2  0
 14 15  1  0
 15 16  1  0
 16 17  2  0
 17 18  1  0
 18 19  2  0
 19 20  1  0
 20 21  2  0
  4 22  1  0
 22 23  2  0
 23  1  1  0
 15  8  1  0
 21 16  1  0
 13 11  1  0
M  END
>  <cnnaffinity>  (429) 
-6.06136

>  <filename>  (429) 
c1ccc(SCCc2nc(C3CC3)nn2-c2cccnc2)nc1

>  <enamine_id>  (429) 
PV-006723450202

$$$$

     RDKit          3D

 26 29  0  0  0  0  0  0  0  0999 V2000
    8.6181    0.5539   26.8162 C   0  0  0  0  0  0  0  0  0  0  0  0
    8.3005    0.7633   25.4582 O   0  0  0  0  0  0  0  0  0  0  0  0
    9.1334    1.4870   24.6570 C   0  0  0  0  0  0  0  0  0  0  0  0
   10.4228    1.8951   25.0300 C   0  0  0  0  0  0  0  0  0  0  0  0
   11.2377    2.5669   24.1123 C   0  0  0  0  0  0  0  0  0  0  0  0
   10.7764    2.8476   22.8268 C   0  0  0  0  0  0  0  0  0  0  0  0
    9.4835    2.4276   22.4820 C   0  0  0  0  0  0  0  0  0  0  0  0
    8.9286    2.6790   20.8652 Cl  0  0  0  0  0  0  0  0  0  0  0  0
    8.6280    1.7619   23.3610 C   0  0  0  0  0  0  0  0  0  0  0  0
    7.2773    1.1996   22.9009 C   0  0  0  0  0  0  0  0  0  0  0  0
    7.4549   -0.1507   22.2721 C   0  0  0  0  0  0  0  0  0  0  0  0
    7.9678   -1.1281   22.9829 N   0  0  0  0  0  0  0  0  0  0  0  0
    8.1942   -2.1076   22.0794 C   0  0  0  0  0  0  0  0  0  0  0  0
    8.8402   -3.3577   22.5629 C   0  0  2  0  0  0  0  0  0  0  0  0
    8.0948   -4.0741   23.7087 C   0  0  0  0  0  0  0  0  0  0  0  0
    9.2161   -4.8405   24.4134 C   0  0  0  0  0  0  0  0  0  0  0  0
   10.4018   -4.0936   24.1897 O   0  0  0  0  0  0  0  0  0  0  0  0
   10.1906   -3.0617   23.2461 C   0  0  0  0  0  0  0  0  0  0  0  0
    7.8345   -1.8255   20.8465 N   0  0  0  0  0  0  0  0  0  0  0  0
    7.3050   -0.5692   20.9753 N   0  0  0  0  0  0  0  0  0  0  0  0
    6.6190    0.0518   19.8962 C   0  0  0  0  0  0  0  0  0  0  0  0
    5.3946    0.7025   20.1054 C   0  0  0  0  0  0  0  0  0  0  0  0
    4.7988    1.3451   19.0176 C   0  0  0  0  0  0  0  0  0  0  0  0
    5.4372    1.3137   17.7748 C   0  0  0  0  0  0  0  0  0  0  0  0
    6.5844    0.6459   17.5567 N   0  0  0  0  0  0  0  0  0  0  0  0
    7.1486    0.0169   18.5926 C   0  0  0  0  0  0  0  0  0  0  0  0
  1  2  1  0
  2  3  1  0
  3  4  2  0
  4  5  1  0
  5  6  2  0
  6  7  1  0
  7  8  1  0
  7  9  2  0
  9 10  1  0
 10 11  1  0
 11 12  2  0
 12 13  1  0
 14 13  1  1
 14 15  1  0
 15 16  1  0
 16 17  1  0
 17 18  1  0
 13 19  2  0
 19 20  1  0
 20 21  1  0
 21 22  2  0
 22 23  1  0
 23 24  2  0
 24 25  1  0
 25 26  2  0
  9  3  1  0
 20 11  1  0
 26 21  1  0
 18 14  1  0
M  END
>  <cnnaffinity>  (430) 
-6.05903

>  <filename>  (430) 
COc1cccc(Cl)c1Cc1nc(C2CCOC2)nn1-c1cccnc1

>  <enamine_id>  (430) 
PV-006729590421

$$$$

     RDKit          3D

 23 26  0  0  0  0  0  0  0  0999 V2000
    5.7122   -4.2052   19.0715 Br  0  0  0  0  0  0  0  0  0  0  0  0
    5.6914   -4.7397   20.8873 C   0  0  0  0  0  0  0  0  0  0  0  0
    5.6045   -6.0840   21.2331 C   0  0  0  0  0  0  0  0  0  0  0  0
    5.5021   -6.4660   22.5711 C   0  0  0  0  0  0  0  0  0  0  0  0
    5.4241   -5.4703   23.5539 C   0  0  0  0  0  0  0  0  0  0  0  0
    5.5161   -4.1136   23.1985 C   0  0  0  0  0  0  0  0  0  0  0  0
    5.6799   -3.7465   21.8584 C   0  0  0  0  0  0  0  0  0  0  0  0
    5.7843   -2.3227   21.3828 C   0  0  0  0  0  0  0  0  0  0  0  0
    7.0464   -1.6082   21.7529 C   0  0  0  0  0  0  0  0  0  0  0  0
    7.9763   -1.9969   22.5754 N   0  0  0  0  0  0  0  0  0  0  0  0
    9.0060   -1.1075   22.3007 C   0  0  0  0  0  0  0  0  0  0  0  0
   10.3599   -1.2472   22.9427 C   0  0  0  0  0  0  0  0  0  0  0  0
   11.0792    0.0633   23.3052 C   0  0  0  0  0  0  0  0  0  0  0  0
   12.4991   -0.2334   22.1981 S   0  0  0  0  0  0  0  0  0  0  0  0
   11.4440   -1.7055   21.9599 C   0  0  0  0  0  0  0  0  0  0  0  0
    8.7431   -0.2119   21.3792 N   0  0  0  0  0  0  0  0  0  0  0  0
    7.4633   -0.4853   21.0597 N   0  0  0  0  0  0  0  0  0  0  0  0
    6.7684    0.1096   20.0087 C   0  0  0  0  0  0  0  0  0  0  0  0
    5.4938    0.6430   20.2154 C   0  0  0  0  0  0  0  0  0  0  0  0
    4.8545    1.2255   19.1232 C   0  0  0  0  0  0  0  0  0  0  0  0
    5.4818    1.2336   17.8705 C   0  0  0  0  0  0  0  0  0  0  0  0
    6.6975    0.6891   17.6601 N   0  0  0  0  0  0  0  0  0  0  0  0
    7.3278    0.1491   18.7194 C   0  0  0  0  0  0  0  0  0  0  0  0
  1  2  1  0
  2  3  2  0
  3  4  1  0
  4  5  2  0
  5  6  1  0
  6  7  2  0
  7  8  1  0
  8  9  1  0
  9 10  2  0
 10 11  1  0
 11 12  1  0
 12 13  1  0
 13 14  1  0
 14 15  1  0
 11 16  2  0
 16 17  1  0
 17 18  1  0
 18 19  2  0
 19 20  1  0
 20 21  2  0
 21 22  1  0
 22 23  2  0
  7  2  1  0
 17  9  1  0
 23 18  1  0
 15 12  1  0
M  END
>  <cnnaffinity>  (431) 
-6.05884

>  <filename>  (431) 
Brc1ccccc1Cc1nc(C2CSC2)nn1-c1cccnc1

>  <enamine_id>  (431) 
PV-006963787337

$$$$

     RDKit          3D

 24 26  0  0  0  0  0  0  0  0999 V2000
    8.3113   -5.8242   23.1799 C   0  0  0  0  0  0  0  0  0  0  0  0
    7.6321   -4.4735   22.9594 C   0  0  0  0  0  0  0  0  0  0  0  0
    8.5512   -3.5554   22.1338 C   0  0  0  0  0  0  0  0  0  0  0  0
    8.0565   -2.1704   21.9226 C   0  0  0  0  0  0  0  0  0  0  0  0
    7.6451   -1.7662   20.7445 N   0  0  0  0  0  0  0  0  0  0  0  0
    7.1984   -0.5087   20.9791 N   0  0  0  0  0  0  0  0  0  0  0  0
    6.5529    0.1790   19.9171 C   0  0  0  0  0  0  0  0  0  0  0  0
    5.3403    0.8613   20.0760 C   0  0  0  0  0  0  0  0  0  0  0  0
    4.7666    1.4464   18.9410 C   0  0  0  0  0  0  0  0  0  0  0  0
    5.4291    1.3472   17.7131 C   0  0  0  0  0  0  0  0  0  0  0  0
    6.5896    0.6824   17.5557 N   0  0  0  0  0  0  0  0  0  0  0  0
    7.1181    0.0939   18.6304 C   0  0  0  0  0  0  0  0  0  0  0  0
    7.4372   -0.1959   22.2917 C   0  0  0  0  0  0  0  0  0  0  0  0
    7.2129    1.1133   22.9852 C   0  0  0  0  0  0  0  0  0  0  0  0
    8.5151    1.7036   23.5272 C   0  0  0  0  0  0  0  0  0  0  0  0
    9.4231    2.3522   22.6837 C   0  0  0  0  0  0  0  0  0  0  0  0
    8.9932    2.5917   21.0191 Cl  0  0  0  0  0  0  0  0  0  0  0  0
   10.6935    2.7676   23.0998 C   0  0  0  0  0  0  0  0  0  0  0  0
   11.0926    2.4701   24.3998 C   0  0  0  0  0  0  0  0  0  0  0  0
   10.2173    1.8440   25.2897 C   0  0  0  0  0  0  0  0  0  0  0  0
    8.9207    1.5080   24.8726 C   0  0  0  0  0  0  0  0  0  0  0  0
    7.9927    0.9731   25.7082 O   0  0  0  0  0  0  0  0  0  0  0  0
    8.3129    0.6621   27.0523 C   0  0  0  0  0  0  0  0  0  0  0  0
    7.9570   -1.2423   22.9068 N   0  0  0  0  0  0  0  0  0  0  0  0
  1  2  1  0
  2  3  1  0
  3  4  1  0
  4  5  2  0
  5  6  1  0
  6  7  1  0
  7  8  2  0
  8  9  1  0
  9 10  2  0
 10 11  1  0
 11 12  2  0
  6 13  1  0
 13 14  1  0
 14 15  1  0
 15 16  2  0
 16 17  1  0
 16 18  1  0
 18 19  2  0
 19 20  1  0
 20 21  2  0
 21 22  1  0
 22 23  1  0
 13 24  2  0
 24  4  1  0
 12  7  1  0
 21 15  1  0
M  END
>  <cnnaffinity>  (432) 
-6.05883

>  <filename>  (432) 
CCCc1nc(Cc2c(Cl)cccc2OC)n(-c2cccnc2)n1

>  <enamine_id>  (432) 
PV-006784221027

$$$$

     RDKit          3D

 23 25  0  0  0  0  0  0  0  0999 V2000
    7.4782   -5.3874   24.0028 C   0  0  0  0  0  0  0  0  0  0  0  0
    7.6695   -4.3703   23.0490 O   0  0  0  0  0  0  0  0  0  0  0  0
    7.4206   -3.0705   23.5550 C   0  0  0  0  0  0  0  0  0  0  0  0
    7.6326   -2.0220   22.5129 C   0  0  0  0  0  0  0  0  0  0  0  0
    6.6780   -1.5856   21.7165 N   0  0  0  0  0  0  0  0  0  0  0  0
    7.3145   -0.6643   20.9569 N   0  0  0  0  0  0  0  0  0  0  0  0
    6.6383   -0.0026   19.8949 C   0  0  0  0  0  0  0  0  0  0  0  0
    5.4238    0.6368   20.1521 C   0  0  0  0  0  0  0  0  0  0  0  0
    4.8007    1.3117   19.0991 C   0  0  0  0  0  0  0  0  0  0  0  0
    5.3919    1.2983   17.8295 C   0  0  0  0  0  0  0  0  0  0  0  0
    6.5399    0.6568   17.5670 N   0  0  0  0  0  0  0  0  0  0  0  0
    7.1469    0.0303   18.5814 C   0  0  0  0  0  0  0  0  0  0  0  0
    8.6058   -0.5540   21.3885 C   0  0  0  0  0  0  0  0  0  0  0  0
    9.6349    0.2960   20.7397 C   0  0  0  0  0  0  0  0  0  0  0  0
   10.5390    0.9605   21.7459 C   0  0  0  0  0  0  0  0  0  0  0  0
   10.0621    2.0954   22.4366 C   0  0  0  0  0  0  0  0  0  0  0  0
    8.7085    2.7155   22.1537 C   0  0  0  0  0  0  0  0  0  0  0  0
   10.8590    2.6380   23.4480 C   0  0  0  0  0  0  0  0  0  0  0  0
   12.0904    2.0656   23.7662 C   0  0  0  0  0  0  0  0  0  0  0  0
   12.5486    0.9378   23.0923 C   0  0  0  0  0  0  0  0  0  0  0  0
   11.7579    0.3393   22.1067 C   0  0  0  0  0  0  0  0  0  0  0  0
   12.1777   -0.9992   21.5391 C   0  0  0  0  0  0  0  0  0  0  0  0
    8.8366   -1.4178   22.3519 N   0  0  0  0  0  0  0  0  0  0  0  0
  1  2  1  0
  2  3  1  0
  3  4  1  0
  4  5  2  0
  5  6  1  0
  6  7  1  0
  7  8  2  0
  8  9  1  0
  9 10  2  0
 10 11  1  0
 11 12  2  0
  6 13  1  0
 13 14  1  0
 14 15  1  0
 15 16  2  0
 16 17  1  0
 16 18  1  0
 18 19  2  0
 19 20  1  0
 20 21  2  0
 21 22  1  0
 13 23  2  0
 23  4  1  0
 12  7  1  0
 21 15  1  0
M  END
>  <cnnaffinity>  (433) 
-6.05661

>  <filename>  (433) 
COCc1nc(Cc2c(C)cccc2C)n(-c2cccnc2)n1

>  <enamine_id>  (433) 
PV-006787612490

$$$$

     RDKit          3D

 26 29  0  0  0  0  0  0  0  0999 V2000
    7.6714    3.6038   24.0270 F   0  0  0  0  0  0  0  0  0  0  0  0
    8.8703    3.0277   23.8497 C   0  0  0  0  0  0  0  0  0  0  0  0
    9.8846    3.3010   24.7546 C   0  0  0  0  0  0  0  0  0  0  0  0
   11.1317    2.6874   24.5622 C   0  0  0  0  0  0  0  0  0  0  0  0
   11.3404    1.8295   23.4964 C   0  0  0  0  0  0  0  0  0  0  0  0
   10.3020    1.5916   22.5931 C   0  0  0  0  0  0  0  0  0  0  0  0
   10.6462    0.7550   21.5747 O   0  0  0  0  0  0  0  0  0  0  0  0
    9.6476    0.2488   20.7215 C   0  0  0  0  0  0  0  0  0  0  0  0
    8.6192   -0.6158   21.3737 C   0  0  0  0  0  0  0  0  0  0  0  0
    8.8349   -1.4756   22.3445 N   0  0  0  0  0  0  0  0  0  0  0  0
    7.5956   -1.9807   22.5780 C   0  0  0  0  0  0  0  0  0  0  0  0
    7.3562   -2.8998   23.7395 C   0  0  0  0  0  0  0  0  0  0  0  0
    8.2861   -4.1399   23.6841 C   0  0  0  0  0  0  0  0  0  0  0  0
    8.1111   -4.9864   24.9447 C   0  0  0  0  0  0  0  0  0  0  0  0
    8.3375   -4.2280   26.1184 O   0  0  0  0  0  0  0  0  0  0  0  0
    7.4435   -3.1395   26.2576 C   0  0  0  0  0  0  0  0  0  0  0  0
    7.5663   -2.1564   25.0931 C   0  0  0  0  0  0  0  0  0  0  0  0
    6.6535   -1.5387   21.7752 N   0  0  0  0  0  0  0  0  0  0  0  0
    7.3224   -0.6737   20.9650 N   0  0  0  0  0  0  0  0  0  0  0  0
    6.6548   -0.0016   19.9018 C   0  0  0  0  0  0  0  0  0  0  0  0
    5.4386    0.6429   20.1546 C   0  0  0  0  0  0  0  0  0  0  0  0
    4.8069    1.3124   19.1027 C   0  0  0  0  0  0  0  0  0  0  0  0
    5.3990    1.2963   17.8338 C   0  0  0  0  0  0  0  0  0  0  0  0
    6.5510    0.6604   17.5745 N   0  0  0  0  0  0  0  0  0  0  0  0
    7.1621    0.0351   18.5874 C   0  0  0  0  0  0  0  0  0  0  0  0
    9.0420    2.1784   22.7598 C   0  0  0  0  0  0  0  0  0  0  0  0
  1  2  1  0
  2  3  2  0
  3  4  1  0
  4  5  2  0
  5  6  1  0
  6  7  1  0
  7  8  1  0
  8  9  1  0
  9 10  2  0
 10 11  1  0
 11 12  1  0
 12 13  1  0
 13 14  1  0
 14 15  1  0
 15 16  1  0
 16 17  1  0
 11 18  2  0
 18 19  1  0
 19 20  1  0
 20 21  2  0
 21 22  1  0
 22 23  2  0
 23 24  1  0
 24 25  2  0
  6 26  2  0
 26  2  1  0
 19  9  1  0
 25 20  1  0
 17 12  1  0
M  END
>  <cnnaffinity>  (434) 
-6.05652

>  <filename>  (434) 
Fc1cccc(OCc2nc(C3CCOCC3)nn2-c2cccnc2)c1

>  <enamine_id>  (434) 
PV-007043779494

$$$$

     RDKit          3D

 24 26  0  0  0  0  0  0  0  0999 V2000
    8.5238    2.5604   22.0093 C   0  0  0  0  0  0  0  0  0  0  0  0
    9.8372    1.9493   22.4651 C   0  0  0  0  0  0  0  0  0  0  0  0
   10.5588    2.5512   23.5067 C   0  0  0  0  0  0  0  0  0  0  0  0
   11.7581    1.9878   23.9547 C   0  0  0  0  0  0  0  0  0  0  0  0
   12.2413    0.8102   23.3871 C   0  0  0  0  0  0  0  0  0  0  0  0
   11.5212    0.1530   22.3810 C   0  0  0  0  0  0  0  0  0  0  0  0
   11.9602   -1.2201   21.9293 C   0  0  0  0  0  0  0  0  0  0  0  0
   10.3609    0.7789   21.8673 C   0  0  0  0  0  0  0  0  0  0  0  0
    9.5542    0.1063   20.7739 C   0  0  0  0  0  0  0  0  0  0  0  0
    8.4975   -0.7721   21.3621 C   0  0  0  0  0  0  0  0  0  0  0  0
    8.6431   -1.5510   22.4208 N   0  0  0  0  0  0  0  0  0  0  0  0
    7.4086   -2.0974   22.5835 C   0  0  0  0  0  0  0  0  0  0  0  0
    7.1094   -2.9534   23.7655 C   0  0  0  0  0  0  0  0  0  0  0  0
    6.7457   -2.1564   25.0426 C   0  0  0  0  0  0  0  0  0  0  0  0
    7.7265   -1.0298   25.4052 C   0  0  0  0  0  0  0  0  0  0  0  0
    9.0752   -1.4431   25.3899 O   0  0  0  0  0  0  0  0  0  0  0  0
    6.5167   -1.7291   21.6921 N   0  0  0  0  0  0  0  0  0  0  0  0
    7.2260   -0.8948   20.8823 N   0  0  0  0  0  0  0  0  0  0  0  0
    6.5777   -0.1941   19.8328 C   0  0  0  0  0  0  0  0  0  0  0  0
    5.4151    0.5351   20.0999 C   0  0  0  0  0  0  0  0  0  0  0  0
    4.8556    1.2900   19.0667 C   0  0  0  0  0  0  0  0  0  0  0  0
    5.4601    1.2614   17.8023 C   0  0  0  0  0  0  0  0  0  0  0  0
    6.5493    0.5272   17.5276 N   0  0  0  0  0  0  0  0  0  0  0  0
    7.0920   -0.1821   18.5246 C   0  0  0  0  0  0  0  0  0  0  0  0
  1  2  1  0
  2  3  2  0
  3  4  1  0
  4  5  2  0
  5  6  1  0
  6  7  1  0
  6  8  2  0
  8  9  1  0
  9 10  1  0
 10 11  2  0
 11 12  1  0
 12 13  1  0
 13 14  1  0
 14 15  1  0
 15 16  1  0
 12 17  2  0
 17 18  1  0
 18 19  1  0
 19 20  2  0
 20 21  1  0
 21 22  2  0
 22 23  1  0
 23 24  2  0
  8  2  1  0
 18 10  1  0
 24 19  1  0
M  END
>  <cnnaffinity>  (435) 
-6.05216

>  <filename>  (435) 
Cc1cccc(C)c1Cc1nc(CCCO)nn1-c1cccnc1

>  <enamine_id>  (435) 
PV-006778009339

$$$$

     RDKit          3D

 25 28  0  0  0  0  0  0  0  0999 V2000
    3.7578    0.3153   25.1503 Cl  0  0  0  0  0  0  0  0  0  0  0  0
    4.3374    1.9292   24.8650 C   0  0  0  0  0  0  0  0  0  0  0  0
    3.6694    3.0230   25.4200 C   0  0  0  0  0  0  0  0  0  0  0  0
    4.2308    4.3049   25.3366 C   0  0  0  0  0  0  0  0  0  0  0  0
    5.4632    4.4852   24.7091 C   0  0  0  0  0  0  0  0  0  0  0  0
    6.0978    3.4102   24.0901 C   0  0  0  0  0  0  0  0  0  0  0  0
    5.5073    2.1385   24.1010 C   0  0  0  0  0  0  0  0  0  0  0  0
    5.9717    1.0997   23.3663 O   0  0  0  0  0  0  0  0  0  0  0  0
    7.2619    1.2067   22.7618 C   0  0  0  0  0  0  0  0  0  0  0  0
    7.6090   -0.1295   22.2175 C   0  0  0  0  0  0  0  0  0  0  0  0
    8.2386   -1.0469   22.9103 N   0  0  0  0  0  0  0  0  0  0  0  0
    8.3445   -2.0727   22.0274 C   0  0  0  0  0  0  0  0  0  0  0  0
    8.9565   -3.3452   22.4702 C   0  0  2  0  0  0  0  0  0  0  0  0
    8.2052   -4.0826   23.5960 C   0  0  0  0  0  0  0  0  0  0  0  0
    9.3260   -4.8240   24.3230 C   0  0  0  0  0  0  0  0  0  0  0  0
   10.5269   -4.1136   24.0693 O   0  0  0  0  0  0  0  0  0  0  0  0
   10.3277   -3.0831   23.1273 C   0  0  0  0  0  0  0  0  0  0  0  0
    7.8633   -1.8355   20.8298 N   0  0  0  0  0  0  0  0  0  0  0  0
    7.3415   -0.5808   20.9630 N   0  0  0  0  0  0  0  0  0  0  0  0
    6.6249    0.0443   19.9122 C   0  0  0  0  0  0  0  0  0  0  0  0
    5.4118    0.7028   20.1520 C   0  0  0  0  0  0  0  0  0  0  0  0
    4.7930    1.3375   19.0712 C   0  0  0  0  0  0  0  0  0  0  0  0
    5.4048    1.2987   17.8159 C   0  0  0  0  0  0  0  0  0  0  0  0
    6.5535    0.6388   17.5809 N   0  0  0  0  0  0  0  0  0  0  0  0
    7.1379    0.0126   18.6054 C   0  0  0  0  0  0  0  0  0  0  0  0
  1  2  1  0
  2  3  2  0
  3  4  1  0
  4  5  2  0
  5  6  1  0
  6  7  2  0
  7  8  1  0
  8  9  1  0
  9 10  1  0
 10 11  2  0
 11 12  1  0
 13 12  1  1
 13 14  1  0
 14 15  1  0
 15 16  1  0
 16 17  1  0
 12 18  2  0
 18 19  1  0
 19 20  1  0
 20 21  2  0
 21 22  1  0
 22 23  2  0
 23 24  1  0
 24 25  2  0
  7  2  1  0
 19 10  1  0
 25 20  1  0
 17 13  1  0
M  END
>  <cnnaffinity>  (436) 
-6.05208

>  <filename>  (436) 
Clc1ccccc1OCc1nc(C2CCOC2)nn1-c1cccnc1

>  <enamine_id>  (436) 
PV-006732649863

$$$$

     RDKit          3D

 23 25  0  0  0  0  0  0  0  0999 V2000
    8.4723   -5.0019   22.7900 C   0  0  0  0  0  0  0  0  0  0  0  0
    7.2214   -4.4400   23.1449 O   0  0  0  0  0  0  0  0  0  0  0  0
    7.3400   -3.0948   23.5785 C   0  0  0  0  0  0  0  0  0  0  0  0
    7.5811   -2.0609   22.5075 C   0  0  0  0  0  0  0  0  0  0  0  0
    6.6452   -1.6224   21.6882 N   0  0  0  0  0  0  0  0  0  0  0  0
    7.2938   -0.6860   20.9554 N   0  0  0  0  0  0  0  0  0  0  0  0
    6.6381   -0.0081   19.8924 C   0  0  0  0  0  0  0  0  0  0  0  0
    5.4247    0.6357   20.1456 C   0  0  0  0  0  0  0  0  0  0  0  0
    4.7964    1.3138   19.0988 C   0  0  0  0  0  0  0  0  0  0  0  0
    5.3931    1.2960   17.8323 C   0  0  0  0  0  0  0  0  0  0  0  0
    6.5386    0.6489   17.5702 N   0  0  0  0  0  0  0  0  0  0  0  0
    7.1493    0.0202   18.5799 C   0  0  0  0  0  0  0  0  0  0  0  0
    8.5833   -0.5869   21.3943 C   0  0  0  0  0  0  0  0  0  0  0  0
    9.6372    0.2844   20.7980 C   0  0  0  0  0  0  0  0  0  0  0  0
   10.3826    1.0820   21.8456 C   0  0  0  0  0  0  0  0  0  0  0  0
    9.7728    2.1713   22.4992 C   0  0  0  0  0  0  0  0  0  0  0  0
    8.1755    2.6771   22.0356 Cl  0  0  0  0  0  0  0  0  0  0  0  0
   10.4394    2.8103   23.5576 C   0  0  0  0  0  0  0  0  0  0  0  0
    9.7432    4.1351   24.4346 Cl  0  0  0  0  0  0  0  0  0  0  0  0
   11.6983    2.3598   23.9642 C   0  0  0  0  0  0  0  0  0  0  0  0
   12.3200    1.2957   23.3093 C   0  0  0  0  0  0  0  0  0  0  0  0
   11.6546    0.6636   22.2548 C   0  0  0  0  0  0  0  0  0  0  0  0
    8.7899   -1.4492   22.3707 N   0  0  0  0  0  0  0  0  0  0  0  0
  1  2  1  0
  2  3  1  0
  3  4  1  0
  4  5  2  0
  5  6  1  0
  6  7  1  0
  7  8  2  0
  8  9  1  0
  9 10  2  0
 10 11  1  0
 11 12  2  0
  6 13  1  0
 13 14  1  0
 14 15  1  0
 15 16  2  0
 16 17  1  0
 16 18  1  0
 18 19  1  0
 18 20  2  0
 20 21  1  0
 21 22  2  0
 13 23  2  0
 23  4  1  0
 12  7  1  0
 22 15  1  0
M  END
>  <cnnaffinity>  (437) 
-6.05163

>  <filename>  (437) 
COCc1nc(Cc2cccc(Cl)c2Cl)n(-c2cccnc2)n1

>  <enamine_id>  (437) 
PV-007149643675

$$$$

     RDKit          3D

 27 30  0  0  0  0  0  0  0  0999 V2000
    6.7889    1.8462   23.0042 C   0  0  0  0  0  0  0  0  0  0  0  0
    8.1701    1.8946   23.6130 C   0  0  0  0  0  0  0  0  0  0  0  0
    8.2780    1.7711   25.0071 C   0  0  0  0  0  0  0  0  0  0  0  0
    9.5199    1.6903   25.6273 C   0  0  0  0  0  0  0  0  0  0  0  0
   10.6849    1.7803   24.8678 C   0  0  0  0  0  0  0  0  0  0  0  0
   10.6332    1.9085   23.4718 C   0  0  0  0  0  0  0  0  0  0  0  0
   11.9228    1.9185   22.6774 C   0  0  0  0  0  0  0  0  0  0  0  0
    9.3619    1.9300   22.8530 C   0  0  0  0  0  0  0  0  0  0  0  0
    9.2777    1.8632   21.4632 O   0  0  0  0  0  0  0  0  0  0  0  0
    9.5847    0.5574   20.9411 C   0  0  0  0  0  0  0  0  0  0  0  0
    8.6351   -0.5299   21.3848 C   0  0  0  0  0  0  0  0  0  0  0  0
    8.8423   -1.3953   22.3663 N   0  0  0  0  0  0  0  0  0  0  0  0
    7.6237   -1.9670   22.5446 C   0  0  0  0  0  0  0  0  0  0  0  0
    7.3374   -2.9019   23.7002 C   0  0  0  0  0  0  0  0  0  0  0  0
    6.6755   -2.1285   24.8737 C   0  0  0  0  0  0  0  0  0  0  0  0
    6.3110   -3.0648   26.0239 C   0  0  0  0  0  0  0  0  0  0  0  0
    5.5045   -4.1445   25.5859 O   0  0  0  0  0  0  0  0  0  0  0  0
    6.1115   -4.9400   24.5831 C   0  0  0  0  0  0  0  0  0  0  0  0
    6.4633   -4.1266   23.3325 C   0  0  0  0  0  0  0  0  0  0  0  0
    6.6907   -1.5377   21.7136 N   0  0  0  0  0  0  0  0  0  0  0  0
    7.3512   -0.6370   20.9372 N   0  0  0  0  0  0  0  0  0  0  0  0
    6.6534    0.0037   19.8762 C   0  0  0  0  0  0  0  0  0  0  0  0
    5.4316    0.6382   20.1199 C   0  0  0  0  0  0  0  0  0  0  0  0
    4.8112    1.3168   19.0688 C   0  0  0  0  0  0  0  0  0  0  0  0
    5.4150    1.3062   17.8059 C   0  0  0  0  0  0  0  0  0  0  0  0
    6.5536    0.6458   17.5468 N   0  0  0  0  0  0  0  0  0  0  0  0
    7.1502    0.0060   18.5602 C   0  0  0  0  0  0  0  0  0  0  0  0
  1  2  1  0
  2  3  2  0
  3  4  1  0
  4  5  2  0
  5  6  1  0
  6  7  1  0
  6  8  2  0
  8  9  1  0
  9 10  1  0
 10 11  1  0
 11 12  2  0
 12 13  1  0
 13 14  1  0
 14 15  1  0
 15 16  1  0
 16 17  1  0
 17 18  1  0
 18 19  1  0
 13 20  2  0
 20 21  1  0
 21 22  1  0
 22 23  2  0
 23 24  1  0
 24 25  2  0
 25 26  1  0
 26 27  2  0
  8  2  1  0
 21 11  1  0
 27 22  1  0
 19 14  1  0
M  END
>  <cnnaffinity>  (438) 
-6.0506

>  <filename>  (438) 
Cc1cccc(C)c1OCc1nc(C2CCOCC2)nn1-c1cccnc1

>  <enamine_id>  (438) 
PV-007112712365

$$$$

     RDKit          3D

 23 26  0  0  0  0  0  0  0  0999 V2000
    4.8199    1.3052   19.1039 C   0  0  0  0  0  0  0  0  0  0  0  0
    5.4141    1.3019   17.8358 C   0  0  0  0  0  0  0  0  0  0  0  0
    6.5614    0.6617   17.5628 N   0  0  0  0  0  0  0  0  0  0  0  0
    7.1721    0.0252   18.5701 C   0  0  0  0  0  0  0  0  0  0  0  0
    6.6713   -0.0082   19.8844 C   0  0  0  0  0  0  0  0  0  0  0  0
    7.3690   -0.6785   20.9304 N   0  0  0  0  0  0  0  0  0  0  0  0
    6.7411   -1.6135   21.6882 N   0  0  0  0  0  0  0  0  0  0  0  0
    7.6805   -1.9830   22.5367 C   0  0  0  0  0  0  0  0  0  0  0  0
    7.4487   -2.9685   23.6133 C   0  0  0  0  0  0  0  0  0  0  0  0
    7.7208   -2.6258   25.0550 C   0  0  0  0  0  0  0  0  0  0  0  0
    6.3075   -2.8162   24.5822 C   0  0  0  0  0  0  0  0  0  0  0  0
    8.8802   -1.3594   22.3775 N   0  0  0  0  0  0  0  0  0  0  0  0
    8.6403   -0.5069   21.4002 C   0  0  0  0  0  0  0  0  0  0  0  0
    9.5120    0.6005   20.9203 C   0  0  0  0  0  0  0  0  0  0  0  0
    8.9842    2.0044   21.2863 C   0  0  0  0  0  0  0  0  0  0  0  0
    8.8268    2.2312   22.8074 C   0  0  0  0  0  0  0  0  0  0  0  0
   10.1635    2.1088   23.5101 C   0  0  0  0  0  0  0  0  0  0  0  0
   10.5170    0.9847   24.2626 C   0  0  0  0  0  0  0  0  0  0  0  0
   11.8242    0.8576   24.7413 C   0  0  0  0  0  0  0  0  0  0  0  0
   12.7894    1.7528   24.5016 N   0  0  0  0  0  0  0  0  0  0  0  0
   12.4519    2.8388   23.7919 C   0  0  0  0  0  0  0  0  0  0  0  0
   11.1632    3.0722   23.3116 C   0  0  0  0  0  0  0  0  0  0  0  0
    5.4522    0.6268   20.1494 C   0  0  0  0  0  0  0  0  0  0  0  0
  1  2  2  0
  2  3  1  0
  3  4  2  0
  4  5  1  0
  5  6  1  0
  6  7  1  0
  7  8  2  0
  8  9  1  0
  9 10  1  0
 10 11  1  0
  8 12  1  0
 12 13  2  0
 13 14  1  0
 14 15  1  0
 15 16  1  0
 16 17  1  0
 17 18  2  0
 18 19  1  0
 19 20  2  0
 20 21  1  0
 21 22  2  0
  5 23  2  0
 23  1  1  0
 13  6  1  0
 22 17  1  0
 11  9  1  0
M  END
>  <cnnaffinity>  (439) 
-6.04645

>  <filename>  (439) 
c1cncc(-n2nc(C3CC3)nc2CCCc2ccncc2)c1

>  <enamine_id>  (439) 
PV-006962459732

$$$$

     RDKit          3D

 24 27  0  0  0  0  0  0  0  0999 V2000
    6.1404    6.3524   23.6042 C   0  0  0  0  0  0  0  0  0  0  0  0
    7.2688    5.4007   23.4259 C   0  0  0  0  0  0  0  0  0  0  0  0
    8.5201    5.7545   23.5665 N   0  0  0  0  0  0  0  0  0  0  0  0
    9.2589    4.5999   23.3567 O   0  0  0  0  0  0  0  0  0  0  0  0
    8.4258    3.5812   23.1180 C   0  0  0  0  0  0  0  0  0  0  0  0
    8.9618    2.2389   22.7948 C   0  0  0  0  0  0  0  0  0  0  0  0
    9.0532    2.0153   21.2783 C   0  0  0  0  0  0  0  0  0  0  0  0
    9.5409    0.6078   20.9257 C   0  0  0  0  0  0  0  0  0  0  0  0
    8.6432   -0.4668   21.4257 C   0  0  0  0  0  0  0  0  0  0  0  0
    8.8811   -1.2787   22.4373 N   0  0  0  0  0  0  0  0  0  0  0  0
    7.7056   -1.9397   22.5742 C   0  0  0  0  0  0  0  0  0  0  0  0
    7.4633   -2.9373   23.6538 C   0  0  0  0  0  0  0  0  0  0  0  0
    6.7624   -4.2549   23.2118 C   0  0  0  0  0  0  0  0  0  0  0  0
    5.5562   -3.9062   24.1111 C   0  0  0  0  0  0  0  0  0  0  0  0
    6.2607   -2.6212   24.5958 C   0  0  0  0  0  0  0  0  0  0  0  0
    6.7693   -1.5991   21.7053 N   0  0  0  0  0  0  0  0  0  0  0  0
    7.3803   -0.6594   20.9440 N   0  0  0  0  0  0  0  0  0  0  0  0
    6.6637    0.0076   19.9059 C   0  0  0  0  0  0  0  0  0  0  0  0
    5.4422    0.6406   20.1707 C   0  0  0  0  0  0  0  0  0  0  0  0
    4.8137    1.3080   19.1111 C   0  0  0  0  0  0  0  0  0  0  0  0
    5.4020    1.2955   17.8384 C   0  0  0  0  0  0  0  0  0  0  0  0
    6.5622    0.6740   17.5760 N   0  0  0  0  0  0  0  0  0  0  0  0
    7.1699    0.0557   18.5950 C   0  0  0  0  0  0  0  0  0  0  0  0
    7.1454    4.0198   23.1322 C   0  0  0  0  0  0  0  0  0  0  0  0
  1  2  1  0
  2  3  2  0
  3  4  1  0
  4  5  1  0
  5  6  1  0
  6  7  1  0
  7  8  1  0
  8  9  1  0
  9 10  2  0
 10 11  1  0
 11 12  1  0
 12 13  1  0
 13 14  1  0
 14 15  1  0
 11 16  2  0
 16 17  1  0
 17 18  1  0
 18 19  2  0
 19 20  1  0
 20 21  2  0
 21 22  1  0
 22 23  2  0
  5 24  2  0
 24  2  1  0
 17  9  1  0
 23 18  1  0
 15 12  1  0
M  END
>  <cnnaffinity>  (440) 
-6.04632

>  <filename>  (440) 
Cc1cc(CCCc2nc(C3CCC3)nn2-c2cccnc2)on1

>  <enamine_id>  (440) 
PV-006960436754

$$$$

     RDKit          3D

 24 26  0  0  0  0  0  0  0  0999 V2000
    6.7892   -0.0052   25.1548 C   0  0  0  0  0  0  0  0  0  0  0  0
    7.3909   -1.3462   25.5605 C   0  0  0  0  0  0  0  0  0  0  0  0
    7.2472   -1.6234   27.0500 C   0  0  0  0  0  0  0  0  0  0  0  0
    6.6875   -2.3968   24.8875 O   0  0  0  0  0  0  0  0  0  0  0  0
    7.3095   -2.9586   23.7372 C   0  0  0  0  0  0  0  0  0  0  0  0
    7.5979   -1.9921   22.6111 C   0  0  0  0  0  0  0  0  0  0  0  0
    6.7261   -1.6465   21.6863 N   0  0  0  0  0  0  0  0  0  0  0  0
    7.3928   -0.6955   20.9703 N   0  0  0  0  0  0  0  0  0  0  0  0
    6.7093   -0.0447   19.8930 C   0  0  0  0  0  0  0  0  0  0  0  0
    5.4773    0.5756   20.1291 C   0  0  0  0  0  0  0  0  0  0  0  0
    4.8592    1.2628   19.0820 C   0  0  0  0  0  0  0  0  0  0  0  0
    5.4731    1.2674   17.8204 C   0  0  0  0  0  0  0  0  0  0  0  0
    6.6251    0.6280   17.5708 N   0  0  0  0  0  0  0  0  0  0  0  0
    7.2242   -0.0187   18.5819 C   0  0  0  0  0  0  0  0  0  0  0  0
    8.6255   -0.5050   21.5380 C   0  0  0  0  0  0  0  0  0  0  0  0
    9.5419    0.6573   21.3137 C   0  0  0  0  0  0  0  0  0  0  0  0
    9.0304    1.8752   22.0605 C   0  0  0  0  0  0  0  0  0  0  0  0
    8.0242    2.6598   21.4764 C   0  0  0  0  0  0  0  0  0  0  0  0
    7.5156    3.7863   22.1193 C   0  0  0  0  0  0  0  0  0  0  0  0
    7.9952    4.1416   23.3815 C   0  0  0  0  0  0  0  0  0  0  0  0
    8.9693    3.3585   24.0034 C   0  0  0  0  0  0  0  0  0  0  0  0
    9.4549    2.2209   23.3543 C   0  0  0  0  0  0  0  0  0  0  0  0
   10.5950    1.2162   24.2149 Cl  0  0  0  0  0  0  0  0  0  0  0  0
    8.7964   -1.3538   22.5299 N   0  0  0  0  0  0  0  0  0  0  0  0
  1  2  1  0
  2  3  1  0
  2  4  1  0
  4  5  1  0
  5  6  1  0
  6  7  2  0
  7  8  1  0
  8  9  1  0
  9 10  2  0
 10 11  1  0
 11 12  2  0
 12 13  1  0
 13 14  2  0
  8 15  1  0
 15 16  1  0
 16 17  1  0
 17 18  2  0
 18 19  1  0
 19 20  2  0
 20 21  1  0
 21 22  2  0
 22 23  1  0
 15 24  2  0
 24  6  1  0
 14  9  1  0
 22 17  1  0
M  END
>  <cnnaffinity>  (441) 
-6.04602

>  <filename>  (441) 
CC(C)OCc1nc(Cc2ccccc2Cl)n(-c2cccnc2)n1

>  <enamine_id>  (441) 
PV-006766064477

$$$$

     RDKit          3D

 21 23  0  0  0  0  0  0  0  0999 V2000
    9.5745   -2.9014   23.6767 O   0  0  0  0  0  0  0  0  0  0  0  0
    8.9334   -2.2408   22.8599 C   0  0  0  0  0  0  0  0  0  0  0  0
    7.4271   -2.4809   22.7500 C   0  0  0  0  0  0  0  0  0  0  0  0
    6.7109   -1.2638   22.1211 C   0  0  0  0  0  0  0  0  0  0  0  0
    7.4879   -0.6377   20.9882 C   0  0  0  0  0  0  0  0  0  0  0  0
    8.8073   -0.6531   21.0012 N   0  0  0  0  0  0  0  0  0  0  0  0
    9.5208   -1.2995   22.0091 N   0  0  0  0  0  0  0  0  0  0  0  0
   10.8984   -1.0408   22.0996 C   0  0  0  0  0  0  0  0  0  0  0  0
   11.8245   -2.0945   22.2041 C   0  0  0  0  0  0  0  0  0  0  0  0
   13.2000   -1.8342   22.1159 C   0  0  0  0  0  0  0  0  0  0  0  0
   14.0972   -2.8393   21.9711 F   0  0  0  0  0  0  0  0  0  0  0  0
   13.6538   -0.5146   22.1738 C   0  0  0  0  0  0  0  0  0  0  0  0
   12.7378    0.5444   22.1312 C   0  0  0  0  0  0  0  0  0  0  0  0
   11.3684    0.2842   22.0358 C   0  0  0  0  0  0  0  0  0  0  0  0
   10.1557    1.7564   21.8196 Br  0  0  0  0  0  0  0  0  0  0  0  0
    6.7552    0.0366   19.9120 C   0  0  0  0  0  0  0  0  0  0  0  0
    5.5075    0.6238   20.1464 C   0  0  0  0  0  0  0  0  0  0  0  0
    4.8774    1.2544   19.0777 C   0  0  0  0  0  0  0  0  0  0  0  0
    5.4803    1.2738   17.8169 C   0  0  0  0  0  0  0  0  0  0  0  0
    6.6668    0.6859   17.5847 N   0  0  0  0  0  0  0  0  0  0  0  0
    7.2897    0.0894   18.6166 C   0  0  0  0  0  0  0  0  0  0  0  0
  1  2  2  0
  2  3  1  0
  3  4  1  0
  4  5  1  0
  5  6  2  0
  6  7  1  0
  7  8  1  0
  8  9  2  0
  9 10  1  0
 10 11  1  0
 10 12  2  0
 12 13  1  0
 13 14  2  0
 14 15  1  0
  5 16  1  0
 16 17  2  0
 17 18  1  0
 18 19  2  0
 19 20  1  0
 20 21  2  0
  7  2  1  0
 14  8  1  0
 21 16  1  0
M  END
>  <cnnaffinity>  (442) 
-6.04589

>  <filename>  (442) 
O=C1CCC(c2cccnc2)=NN1c1cc(F)ccc1Br

>  <enamine_id>  (442) 
PV-002836978015

$$$$

     RDKit          3D

 27 30  0  0  0  0  0  0  0  0999 V2000
    8.3989    6.0630   24.5369 F   0  0  0  0  0  0  0  0  0  0  0  0
    7.7095    5.4051   23.6041 C   0  0  0  0  0  0  0  0  0  0  0  0
    8.2804    4.2532   23.0595 C   0  0  0  0  0  0  0  0  0  0  0  0
    7.5788    3.5386   22.0805 C   0  0  0  0  0  0  0  0  0  0  0  0
    8.0302    2.3982   21.4854 O   0  0  0  0  0  0  0  0  0  0  0  0
    9.3177    1.8739   21.7987 C   0  0  0  0  0  0  0  0  0  0  0  0
    9.5153    0.5851   20.9959 C   0  0  0  0  0  0  0  0  0  0  0  0
    8.5939   -0.5031   21.4204 C   0  0  0  0  0  0  0  0  0  0  0  0
    8.8170   -1.3429   22.4092 N   0  0  0  0  0  0  0  0  0  0  0  0
    7.6320   -2.0023   22.5246 C   0  0  0  0  0  0  0  0  0  0  0  0
    7.4088   -3.0319   23.5762 C   0  0  1  0  0  0  0  0  0  0  0  0
    8.4460   -4.1789   23.6047 C   0  0  0  0  0  0  0  0  0  0  0  0
    8.4471   -4.6157   25.0752 C   0  0  0  0  0  0  0  0  0  0  0  0
    7.9089   -3.5350   25.8223 O   0  0  0  0  0  0  0  0  0  0  0  0
    7.5060   -2.4566   25.0026 C   0  0  0  0  0  0  0  0  0  0  0  0
    6.7033   -1.6287   21.6726 N   0  0  0  0  0  0  0  0  0  0  0  0
    7.3355   -0.6786   20.9313 N   0  0  0  0  0  0  0  0  0  0  0  0
    6.6542    0.0105   19.8971 C   0  0  0  0  0  0  0  0  0  0  0  0
    5.4361    0.6444   20.1625 C   0  0  0  0  0  0  0  0  0  0  0  0
    4.8088    1.3080   19.1062 C   0  0  0  0  0  0  0  0  0  0  0  0
    5.3981    1.2950   17.8363 C   0  0  0  0  0  0  0  0  0  0  0  0
    6.5554    0.6697   17.5722 N   0  0  0  0  0  0  0  0  0  0  0  0
    7.1661    0.0536   18.5901 C   0  0  0  0  0  0  0  0  0  0  0  0
    6.3170    4.0039   21.6704 C   0  0  0  0  0  0  0  0  0  0  0  0
    5.7668    5.1598   22.2281 C   0  0  0  0  0  0  0  0  0  0  0  0
    6.4567    5.8768   23.2074 C   0  0  0  0  0  0  0  0  0  0  0  0
    5.7675    7.3095   23.9008 Cl  0  0  0  0  0  0  0  0  0  0  0  0
  1  2  1  0
  2  3  2  0
  3  4  1  0
  4  5  1  0
  5  6  1  0
  6  7  1  0
  7  8  1  0
  8  9  2  0
  9 10  1  0
 11 10  1  6
 11 12  1  0
 12 13  1  0
 13 14  1  0
 14 15  1  0
 10 16  2  0
 16 17  1  0
 17 18  1  0
 18 19  2  0
 19 20  1  0
 20 21  2  0
 21 22  1  0
 22 23  2  0
  4 24  2  0
 24 25  1  0
 25 26  2  0
 26 27  1  0
 26  2  1  0
 17  8  1  0
 23 18  1  0
 15 11  1  0
M  END
>  <cnnaffinity>  (443) 
-6.04519

>  <filename>  (443) 
Fc1cc(OCCc2nc(C3CCOC3)nn2-c2cccnc2)ccc1Cl

>  <enamine_id>  (443) 
PV-007125259292

$$$$

     RDKit          3D

 25 28  0  0  0  0  0  0  0  0999 V2000
    5.0734   -4.4458   22.5634 C   0  0  0  0  0  0  0  0  0  0  0  0
    4.8566   -3.6207   23.5943 C   0  0  0  0  0  0  0  0  0  0  0  0
    5.9638   -2.9486   24.3765 C   0  0  0  0  0  0  0  0  0  0  0  0
    7.3330   -3.0404   23.6666 C   0  0  2  0  0  0  0  0  0  0  0  0
    7.5150   -1.9944   22.5919 C   0  0  0  0  0  0  0  0  0  0  0  0
    6.5978   -1.5949   21.7286 N   0  0  0  0  0  0  0  0  0  0  0  0
    7.2893   -0.7699   20.8998 N   0  0  0  0  0  0  0  0  0  0  0  0
    6.6193   -0.0667   19.8577 C   0  0  0  0  0  0  0  0  0  0  0  0
    5.4270    0.6094   20.1314 C   0  0  0  0  0  0  0  0  0  0  0  0
    4.8209    1.3142   19.0885 C   0  0  0  0  0  0  0  0  0  0  0  0
    5.4096    1.3145   17.8172 C   0  0  0  0  0  0  0  0  0  0  0  0
    6.5352    0.6403   17.5408 N   0  0  0  0  0  0  0  0  0  0  0  0
    7.1155   -0.0338   18.5403 C   0  0  0  0  0  0  0  0  0  0  0  0
    8.5670   -0.6626   21.3599 C   0  0  0  0  0  0  0  0  0  0  0  0
    9.6166    0.1203   20.6364 C   0  0  0  0  0  0  0  0  0  0  0  0
   10.6284    0.6653   21.4617 O   0  0  0  0  0  0  0  0  0  0  0  0
   10.3328    1.5823   22.4299 C   0  0  0  0  0  0  0  0  0  0  0  0
   11.4171    1.9469   23.2401 C   0  0  0  0  0  0  0  0  0  0  0  0
   11.2017    2.8898   24.2406 C   0  0  0  0  0  0  0  0  0  0  0  0
    9.9147    3.4058   24.4383 C   0  0  0  0  0  0  0  0  0  0  0  0
    8.8709    3.0623   23.6782 N   0  0  0  0  0  0  0  0  0  0  0  0
    9.0803    2.1802   22.6847 C   0  0  0  0  0  0  0  0  0  0  0  0
    8.7401   -1.4475   22.4042 N   0  0  0  0  0  0  0  0  0  0  0  0
    7.5462   -4.4740   23.1078 C   0  0  0  0  0  0  0  0  0  0  0  0
    6.4564   -4.8265   22.0807 C   0  0  0  0  0  0  0  0  0  0  0  0
  1  2  2  0
  2  3  1  0
  3  4  1  0
  4  5  1  6
  5  6  2  0
  6  7  1  0
  7  8  1  0
  8  9  2  0
  9 10  1  0
 10 11  2  0
 11 12  1  0
 12 13  2  0
  7 14  1  0
 14 15  1  0
 15 16  1  0
 16 17  1  0
 17 18  2  0
 18 19  1  0
 19 20  2  0
 20 21  1  0
 21 22  2  0
 14 23  2  0
  4 24  1  0
 24 25  1  0
 25  1  1  0
 23  5  1  0
 13  8  1  0
 22 17  1  0
M  END
>  <cnnaffinity>  (444) 
-6.04476

>  <filename>  (444) 
C1=CCC(c2nc(COc3cccnc3)n(-c3cccnc3)n2)CC1

>  <enamine_id>  (444) 
PV-007163426604

$$$$

     RDKit          3D

 25 28  0  0  0  0  0  0  0  0999 V2000
    6.9826    7.5045   23.6378 F   0  0  0  0  0  0  0  0  0  0  0  0
    7.4265    6.2575   23.4318 C   0  0  0  0  0  0  0  0  0  0  0  0
    6.5215    5.2224   23.2221 C   0  0  0  0  0  0  0  0  0  0  0  0
    7.0071    3.9271   23.0207 C   0  0  0  0  0  0  0  0  0  0  0  0
    8.3801    3.6571   23.0374 C   0  0  0  0  0  0  0  0  0  0  0  0
    8.8858    2.2699   22.7513 C   0  0  0  0  0  0  0  0  0  0  0  0
    9.0338    2.0198   21.2473 C   0  0  0  0  0  0  0  0  0  0  0  0
    9.5362    0.6039   20.9241 C   0  0  0  0  0  0  0  0  0  0  0  0
    8.6316   -0.4675   21.4310 C   0  0  0  0  0  0  0  0  0  0  0  0
    8.8541   -1.2590   22.4598 N   0  0  0  0  0  0  0  0  0  0  0  0
    7.6704   -1.9158   22.5936 C   0  0  0  0  0  0  0  0  0  0  0  0
    7.4726   -2.9618   23.6245 C   0  0  0  0  0  0  0  0  0  0  0  0
    8.4401   -4.1133   23.7077 C   0  0  0  0  0  0  0  0  0  0  0  0
    7.0484   -4.3412   23.2021 C   0  0  0  0  0  0  0  0  0  0  0  0
    6.7428   -1.5811   21.7190 N   0  0  0  0  0  0  0  0  0  0  0  0
    7.3685   -0.6635   20.9436 N   0  0  0  0  0  0  0  0  0  0  0  0
    6.6637    0.0091   19.9036 C   0  0  0  0  0  0  0  0  0  0  0  0
    5.4413    0.6420   20.1671 C   0  0  0  0  0  0  0  0  0  0  0  0
    4.8138    1.3083   19.1097 C   0  0  0  0  0  0  0  0  0  0  0  0
    5.4024    1.2956   17.8371 C   0  0  0  0  0  0  0  0  0  0  0  0
    6.5611    0.6740   17.5777 N   0  0  0  0  0  0  0  0  0  0  0  0
    7.1704    0.0563   18.5929 C   0  0  0  0  0  0  0  0  0  0  0  0
    9.2814    4.7139   23.2322 C   0  0  0  0  0  0  0  0  0  0  0  0
    8.8029    6.0038   23.4315 C   0  0  0  0  0  0  0  0  0  0  0  0
    9.6642    7.0114   23.6322 F   0  0  0  0  0  0  0  0  0  0  0  0
  1  2  1  0
  2  3  2  0
  3  4  1  0
  4  5  2  0
  5  6  1  0
  6  7  1  0
  7  8  1  0
  8  9  1  0
  9 10  2  0
 10 11  1  0
 11 12  1  0
 12 13  1  0
 13 14  1  0
 11 15  2  0
 15 16  1  0
 16 17  1  0
 17 18  2  0
 18 19  1  0
 19 20  2  0
 20 21  1  0
 21 22  2  0
  5 23  1  0
 23 24  2  0
 24 25  1  0
 24  2  1  0
 16  9  1  0
 22 17  1  0
 14 12  1  0
M  END
>  <cnnaffinity>  (445) 
-6.04403

>  <filename>  (445) 
Fc1ccc(CCCc2nc(C3CC3)nn2-c2cccnc2)cc1F

>  <enamine_id>  (445) 
PV-006738179667

$$$$

     RDKit          3D

 25 28  0  0  0  0  0  0  0  0999 V2000
    8.3905    3.7592   24.2117 C   0  0  0  0  0  0  0  0  0  0  0  0
    7.2979    2.8545   24.6490 N   0  0  2  0  0  4  0  0  0  0  0  0
    7.2089    2.8735   26.1786 C   0  0  0  0  0  0  0  0  0  0  0  0
    6.3326    1.7340   26.7406 C   0  0  0  0  0  0  0  0  0  0  0  0
    5.3145    1.2401   25.7059 C   0  0  0  0  0  0  0  0  0  0  0  0
    6.0249    0.7226   24.4404 C   0  0  0  0  0  0  0  0  0  0  0  0
    7.3550    1.4336   24.0999 C   0  0  1  0  0  0  0  0  0  0  0  0
    7.6468    1.3876   22.5872 C   0  0  0  0  0  0  0  0  0  0  0  0
    7.6874   -0.0262   22.0971 C   0  0  0  0  0  0  0  0  0  0  0  0
    8.2732   -0.9674   22.8117 N   0  0  0  0  0  0  0  0  0  0  0  0
    8.0818   -2.0965   22.0903 C   0  0  0  0  0  0  0  0  0  0  0  0
    8.5336   -3.4645   22.5606 C   0  0  1  0  0  0  0  0  0  0  0  0
    9.6788   -3.4011   23.6149 C   0  0  0  0  0  0  0  0  0  0  0  0
    9.1759   -3.1715   25.0245 C   0  0  0  0  0  0  0  0  0  0  0  0
    7.9079   -3.3620   25.4010 C   0  0  0  0  0  0  0  0  0  0  0  0
    6.8275   -3.8618   24.4716 C   0  0  0  0  0  0  0  0  0  0  0  0
    7.3962   -4.3593   23.1327 C   0  0  0  0  0  0  0  0  0  0  0  0
    7.4740   -1.9036   20.9290 N   0  0  0  0  0  0  0  0  0  0  0  0
    7.1942   -0.5657   20.9414 N   0  0  0  0  0  0  0  0  0  0  0  0
    6.5277    0.0587   19.8378 C   0  0  0  0  0  0  0  0  0  0  0  0
    5.3465    0.7947   20.0061 C   0  0  0  0  0  0  0  0  0  0  0  0
    4.7887    1.4253   18.8879 C   0  0  0  0  0  0  0  0  0  0  0  0
    5.4330    1.3128   17.6519 C   0  0  0  0  0  0  0  0  0  0  0  0
    6.5464    0.5781   17.4768 N   0  0  0  0  0  0  0  0  0  0  0  0
    7.0615   -0.0494   18.5390 C   0  0  0  0  0  0  0  0  0  0  0  0
  2  1  1  1
  2  3  1  0
  3  4  1  0
  4  5  1  0
  5  6  1  0
  6  7  1  0
  7  8  1  6
  8  9  1  0
  9 10  2  0
 10 11  1  0
 12 11  1  1
 12 13  1  0
 13 14  1  0
 14 15  2  0
 15 16  1  0
 16 17  1  0
 11 18  2  0
 18 19  1  0
 19 20  1  0
 20 21  2  0
 21 22  1  0
 22 23  2  0
 23 24  1  0
 24 25  2  0
  7  2  1  0
 19  9  1  0
 25 20  1  0
 17 12  1  0
M  CHG  1   2   1
M  END
>  <cnnaffinity>  (446) 
-6.04147

>  <filename>  (446) 
C[NH+]1CCCCC1Cc1nc(C2CC=CCC2)nn1-c1cccnc1

>  <enamine_id>  (446) 
PV-007066588253

$$$$

     RDKit          3D

 24 27  0  0  0  0  0  0  0  0999 V2000
   12.4511    0.5672   24.7081 C   0  0  0  0  0  0  0  0  0  0  0  0
   12.7109    0.1713   23.3888 C   0  0  0  0  0  0  0  0  0  0  0  0
   11.8256    0.5120   22.3674 C   0  0  0  0  0  0  0  0  0  0  0  0
   10.6817    1.2857   22.6438 C   0  0  0  0  0  0  0  0  0  0  0  0
    9.8696    1.5154   21.5772 O   0  0  0  0  0  0  0  0  0  0  0  0
    8.6614    2.2572   21.7102 C   0  0  0  0  0  0  0  0  0  0  0  0
    7.5636    1.5442   22.5350 C   0  0  0  0  0  0  0  0  0  0  0  0
    7.5532    0.0705   22.2760 C   0  0  0  0  0  0  0  0  0  0  0  0
    8.1056   -0.8493   23.0466 N   0  0  0  0  0  0  0  0  0  0  0  0
    8.2567   -1.9057   22.1995 C   0  0  0  0  0  0  0  0  0  0  0  0
    9.1379   -3.0668   22.5096 C   0  0  0  0  0  0  0  0  0  0  0  0
    9.0068   -3.7631   23.8829 C   0  0  0  0  0  0  0  0  0  0  0  0
   10.8205   -3.7870   24.0985 S   0  0  0  0  0  0  0  0  0  0  0  0
   10.6138   -2.6220   22.7199 C   0  0  0  0  0  0  0  0  0  0  0  0
    7.7698   -1.7240   20.9904 N   0  0  0  0  0  0  0  0  0  0  0  0
    7.2797   -0.4556   21.0505 N   0  0  0  0  0  0  0  0  0  0  0  0
    6.6044    0.1244   19.9448 C   0  0  0  0  0  0  0  0  0  0  0  0
    5.4005    0.8179   20.1078 C   0  0  0  0  0  0  0  0  0  0  0  0
    4.8206    1.3951   18.9742 C   0  0  0  0  0  0  0  0  0  0  0  0
    5.4610    1.2598   17.7397 C   0  0  0  0  0  0  0  0  0  0  0  0
    6.6032    0.5695   17.5761 N   0  0  0  0  0  0  0  0  0  0  0  0
    7.1509    0.0019   18.6550 C   0  0  0  0  0  0  0  0  0  0  0  0
   10.4533    1.7264   23.9546 C   0  0  0  0  0  0  0  0  0  0  0  0
   11.3154    1.3316   24.9820 C   0  0  0  0  0  0  0  0  0  0  0  0
  1  2  2  0
  2  3  1  0
  3  4  2  0
  4  5  1  0
  5  6  1  0
  6  7  1  0
  7  8  1  0
  8  9  2  0
  9 10  1  0
 10 11  1  0
 11 12  1  0
 12 13  1  0
 13 14  1  0
 10 15  2  0
 15 16  1  0
 16 17  1  0
 17 18  2  0
 18 19  1  0
 19 20  2  0
 20 21  1  0
 21 22  2  0
  4 23  1  0
 23 24  2  0
 24  1  1  0
 16  8  1  0
 22 17  1  0
 14 11  1  0
M  END
>  <cnnaffinity>  (447) 
-6.04099

>  <filename>  (447) 
c1ccc(OCCc2nc(C3CSC3)nn2-c2cccnc2)cc1

>  <enamine_id>  (447) 
PV-006930778138

$$$$

     RDKit          3D

 27 30  0  0  0  0  0  0  0  0999 V2000
    7.3026    5.9582   26.5946 C   0  0  0  0  0  0  0  0  0  0  0  0
    7.7420    4.8831   25.6210 C   0  0  0  0  0  0  0  0  0  0  0  0
    8.1552    3.6174   26.0668 C   0  0  0  0  0  0  0  0  0  0  0  0
    8.5801    2.6293   25.1773 C   0  0  0  0  0  0  0  0  0  0  0  0
    8.6032    2.8907   23.7938 C   0  0  0  0  0  0  0  0  0  0  0  0
    9.0379    1.8686   23.0037 O   0  0  0  0  0  0  0  0  0  0  0  0
    9.0522    1.9940   21.5860 C   0  0  0  0  0  0  0  0  0  0  0  0
    9.5008    0.6474   21.0176 C   0  0  0  0  0  0  0  0  0  0  0  0
    8.6122   -0.4645   21.4450 C   0  0  0  0  0  0  0  0  0  0  0  0
    8.8432   -1.3019   22.4299 N   0  0  0  0  0  0  0  0  0  0  0  0
    7.6591   -1.9621   22.5559 C   0  0  0  0  0  0  0  0  0  0  0  0
    7.4219   -2.9361   23.6742 C   0  0  0  0  0  0  0  0  0  0  0  0
    8.5243   -4.0192   23.7477 C   0  0  0  0  0  0  0  0  0  0  0  0
    8.3246   -4.9039   24.9793 C   0  0  0  0  0  0  0  0  0  0  0  0
    8.2754   -4.1408   26.1723 O   0  0  0  0  0  0  0  0  0  0  0  0
    7.1939   -3.2259   26.1810 C   0  0  0  0  0  0  0  0  0  0  0  0
    7.3022   -2.2101   25.0432 C   0  0  0  0  0  0  0  0  0  0  0  0
    6.7339   -1.6145   21.6875 N   0  0  0  0  0  0  0  0  0  0  0  0
    7.3572   -0.6612   20.9428 N   0  0  0  0  0  0  0  0  0  0  0  0
    6.6586    0.0127   19.9008 C   0  0  0  0  0  0  0  0  0  0  0  0
    5.4389    0.6458   20.1656 C   0  0  0  0  0  0  0  0  0  0  0  0
    4.8129    1.3114   19.1075 C   0  0  0  0  0  0  0  0  0  0  0  0
    5.4006    1.2970   17.8361 C   0  0  0  0  0  0  0  0  0  0  0  0
    6.5580    0.6713   17.5721 N   0  0  0  0  0  0  0  0  0  0  0  0
    7.1667    0.0515   18.5901 C   0  0  0  0  0  0  0  0  0  0  0  0
    8.2001    4.1489   23.3291 C   0  0  0  0  0  0  0  0  0  0  0  0
    7.7759    5.1243   24.2436 C   0  0  0  0  0  0  0  0  0  0  0  0
  1  2  1  0
  2  3  2  0
  3  4  1  0
  4  5  2  0
  5  6  1  0
  6  7  1  0
  7  8  1  0
  8  9  1  0
  9 10  2  0
 10 11  1  0
 11 12  1  0
 12 13  1  0
 13 14  1  0
 14 15  1  0
 15 16  1  0
 16 17  1  0
 11 18  2  0
 18 19  1  0
 19 20  1  0
 20 21  2  0
 21 22  1  0
 22 23  2  0
 23 24  1  0
 24 25  2  0
  5 26  1  0
 26 27  2  0
 27  2  1  0
 19  9  1  0
 25 20  1  0
 17 12  1  0
M  END
>  <cnnaffinity>  (448) 
-6.03655

>  <filename>  (448) 
Cc1ccc(OCCc2nc(C3CCOCC3)nn2-c2cccnc2)cc1

>  <enamine_id>  (448) 
PV-006867719492

$$$$

     RDKit          3D

 25 28  0  0  0  0  0  0  0  0999 V2000
    8.0925    2.6452   22.1171 C   0  0  0  0  0  0  0  0  0  0  0  0
    9.4894    2.2786   22.5565 C   0  0  0  0  0  0  0  0  0  0  0  0
   10.0880    2.9760   23.6071 C   0  0  0  0  0  0  0  0  0  0  0  0
   11.3727    2.6146   24.0160 C   0  0  0  0  0  0  0  0  0  0  0  0
   12.0136    1.5691   23.3576 C   0  0  0  0  0  0  0  0  0  0  0  0
   11.4661    0.8862   22.3425 N   0  0  0  0  0  0  0  0  0  0  0  0
   10.2379    1.2325   21.9543 C   0  0  0  0  0  0  0  0  0  0  0  0
    9.6389    0.4074   20.8494 C   0  0  0  0  0  0  0  0  0  0  0  0
    8.6332   -0.5312   21.3842 C   0  0  0  0  0  0  0  0  0  0  0  0
    8.8766   -1.3880   22.3527 N   0  0  0  0  0  0  0  0  0  0  0  0
    7.6825   -2.0034   22.5219 C   0  0  0  0  0  0  0  0  0  0  0  0
    7.4277   -3.0174   23.6067 C   0  0  0  0  0  0  0  0  0  0  0  0
    6.8574   -4.3426   23.0439 C   0  0  0  0  0  0  0  0  0  0  0  0
    6.4628   -5.2894   24.1770 C   0  0  0  0  0  0  0  0  0  0  0  0
    5.5525   -4.6801   25.0765 O   0  0  0  0  0  0  0  0  0  0  0  0
    6.1129   -3.5438   25.7135 C   0  0  0  0  0  0  0  0  0  0  0  0
    6.4840   -2.4577   24.7055 C   0  0  0  0  0  0  0  0  0  0  0  0
    6.7265   -1.5995   21.7003 N   0  0  0  0  0  0  0  0  0  0  0  0
    7.3550   -0.6782   20.9291 N   0  0  0  0  0  0  0  0  0  0  0  0
    6.6490   -0.0031   19.8972 C   0  0  0  0  0  0  0  0  0  0  0  0
    5.4369    0.6401   20.1663 C   0  0  0  0  0  0  0  0  0  0  0  0
    4.8115    1.3101   19.1097 C   0  0  0  0  0  0  0  0  0  0  0  0
    5.3981    1.2965   17.8377 C   0  0  0  0  0  0  0  0  0  0  0  0
    6.5546    0.6706   17.5736 N   0  0  0  0  0  0  0  0  0  0  0  0
    7.1612    0.0451   18.5877 C   0  0  0  0  0  0  0  0  0  0  0  0
  1  2  1  0
  2  3  2  0
  3  4  1  0
  4  5  2  0
  5  6  1  0
  6  7  2  0
  7  8  1  0
  8  9  1  0
  9 10  2  0
 10 11  1  0
 11 12  1  0
 12 13  1  0
 13 14  1  0
 14 15  1  0
 15 16  1  0
 16 17  1  0
 11 18  2  0
 18 19  1  0
 19 20  1  0
 20 21  2  0
 21 22  1  0
 22 23  2  0
 23 24  1  0
 24 25  2  0
  7  2  1  0
 19  9  1  0
 25 20  1  0
 17 12  1  0
M  END
>  <cnnaffinity>  (449) 
-6.03646

>  <filename>  (449) 
Cc1cccnc1Cc1nc(C2CCOCC2)nn1-c1cccnc1

>  <enamine_id>  (449) 
PV-007091099072

$$$$

     RDKit          3D

 24 27  0  0  0  0  0  0  0  0999 V2000
   12.9390    1.5752   23.0799 Cl  0  0  0  0  0  0  0  0  0  0  0  0
   11.3146    2.1685   23.2536 C   0  0  0  0  0  0  0  0  0  0  0  0
   11.0584    3.1629   24.1960 C   0  0  0  0  0  0  0  0  0  0  0  0
    9.7677    3.6752   24.3510 C   0  0  0  0  0  0  0  0  0  0  0  0
    8.7282    3.1818   23.5660 C   0  0  0  0  0  0  0  0  0  0  0  0
    8.9747    2.1917   22.6132 C   0  0  0  0  0  0  0  0  0  0  0  0
   10.2678    1.6696   22.4436 C   0  0  0  0  0  0  0  0  0  0  0  0
   10.5918    0.7101   21.5351 O   0  0  0  0  0  0  0  0  0  0  0  0
    9.6183    0.1278   20.6790 C   0  0  0  0  0  0  0  0  0  0  0  0
    8.5391   -0.6696   21.3619 C   0  0  0  0  0  0  0  0  0  0  0  0
    8.7071   -1.4655   22.4007 N   0  0  0  0  0  0  0  0  0  0  0  0
    7.4880   -2.0307   22.5652 C   0  0  0  0  0  0  0  0  0  0  0  0
    7.2371   -2.9913   23.6840 C   0  0  0  0  0  0  0  0  0  0  0  0
    6.2165   -2.5148   24.7603 C   0  0  0  0  0  0  0  0  0  0  0  0
    5.1078   -3.9252   24.4294 S   0  0  0  0  0  0  0  0  0  0  0  0
    6.4971   -4.3046   23.3104 C   0  0  0  0  0  0  0  0  0  0  0  0
    6.5800   -1.6512   21.6893 N   0  0  0  0  0  0  0  0  0  0  0  0
    7.2585   -0.7847   20.8910 N   0  0  0  0  0  0  0  0  0  0  0  0
    6.5728   -0.1076   19.8376 C   0  0  0  0  0  0  0  0  0  0  0  0
    5.3755    0.5698   20.1030 C   0  0  0  0  0  0  0  0  0  0  0  0
    4.7885    1.3048   19.0683 C   0  0  0  0  0  0  0  0  0  0  0  0
    5.3924    1.3095   17.8044 C   0  0  0  0  0  0  0  0  0  0  0  0
    6.4992    0.6063   17.5235 N   0  0  0  0  0  0  0  0  0  0  0  0
    7.0645   -0.0903   18.5174 C   0  0  0  0  0  0  0  0  0  0  0  0
  1  2  1  0
  2  3  2  0
  3  4  1  0
  4  5  2  0
  5  6  1  0
  6  7  2  0
  7  8  1  0
  8  9  1  0
  9 10  1  0
 10 11  2  0
 11 12  1  0
 12 13  1  0
 13 14  1  0
 14 15  1  0
 15 16  1  0
 12 17  2  0
 17 18  1  0
 18 19  1  0
 19 20  2  0
 20 21  1  0
 21 22  2  0
 22 23  1  0
 23 24  2  0
  7  2  1  0
 18 10  1  0
 24 19  1  0
 16 13  1  0
M  END
>  <cnnaffinity>  (450) 
-6.03409

>  <filename>  (450) 
Clc1ccccc1OCc1nc(C2CSC2)nn1-c1cccnc1

>  <enamine_id>  (450) 
PV-007151512760

$$$$

     RDKit          3D

 24 26  0  0  0  0  0  0  0  0999 V2000
    7.1222   -4.9838   22.7479 C   0  0  0  0  0  0  0  0  0  0  0  0
    6.4867   -3.9047   23.4429 O   0  0  0  0  0  0  0  0  0  0  0  0
    7.4111   -2.8417   23.7545 C   0  0  2  0  0  0  0  0  0  0  0  0
    6.8372   -2.0605   24.9373 C   0  0  0  0  0  0  0  0  0  0  0  0
    7.6582   -1.8965   22.5885 C   0  0  0  0  0  0  0  0  0  0  0  0
    6.7310   -1.5873   21.7121 N   0  0  0  0  0  0  0  0  0  0  0  0
    7.3237   -0.6696   20.9265 N   0  0  0  0  0  0  0  0  0  0  0  0
    6.6624    0.0111   19.9045 C   0  0  0  0  0  0  0  0  0  0  0  0
    5.4444    0.6421   20.1582 C   0  0  0  0  0  0  0  0  0  0  0  0
    4.8238    1.2999   19.0996 C   0  0  0  0  0  0  0  0  0  0  0  0
    5.4024    1.2966   17.8256 C   0  0  0  0  0  0  0  0  0  0  0  0
    6.5749    0.6799   17.5786 N   0  0  0  0  0  0  0  0  0  0  0  0
    7.1896    0.0605   18.6025 C   0  0  0  0  0  0  0  0  0  0  0  0
    8.6063   -0.4411   21.4054 C   0  0  0  0  0  0  0  0  0  0  0  0
    9.5442    0.6253   20.9347 C   0  0  0  0  0  0  0  0  0  0  0  0
    9.0607    2.0039   21.4201 C   0  0  0  0  0  0  0  0  0  0  0  0
    8.9305    2.0374   22.9199 C   0  0  0  0  0  0  0  0  0  0  0  0
    7.7033    1.8034   23.5369 C   0  0  0  0  0  0  0  0  0  0  0  0
    7.5951    1.8074   24.9270 C   0  0  0  0  0  0  0  0  0  0  0  0
    8.6498    2.0014   25.7223 N   0  0  0  0  0  0  0  0  0  0  0  0
    9.8384    2.1822   25.1288 C   0  0  0  0  0  0  0  0  0  0  0  0
   10.0275    2.2477   23.7473 C   0  0  0  0  0  0  0  0  0  0  0  0
   11.7824    2.5654   23.0458 Br  0  0  0  0  0  0  0  0  0  0  0  0
    8.8618   -1.2189   22.4147 N   0  0  0  0  0  0  0  0  0  0  0  0
  1  2  1  0
  2  3  1  0
  3  4  1  1
  3  5  1  0
  5  6  2  0
  6  7  1  0
  7  8  1  0
  8  9  2  0
  9 10  1  0
 10 11  2  0
 11 12  1  0
 12 13  2  0
  7 14  1  0
 14 15  1  0
 15 16  1  0
 16 17  1  0
 17 18  2  0
 18 19  1  0
 19 20  2  0
 20 21  1  0
 21 22  2  0
 22 23  1  0
 14 24  2  0
 24  5  1  0
 13  8  1  0
 22 17  1  0
M  END
>  <cnnaffinity>  (451) 
-6.03286

>  <filename>  (451) 
COC(C)c1nc(CCc2ccncc2Br)n(-c2cccnc2)n1

>  <enamine_id>  (451) 
PV-006898312245

$$$$

     RDKit          3D

 23 26  0  0  0  0  0  0  0  0999 V2000
   13.2274   -0.3489   22.8473 C   0  0  0  0  0  0  0  0  0  0  0  0
   12.3519    0.3760   23.5447 C   0  0  0  0  0  0  0  0  0  0  0  0
   10.8585    0.1715   23.4999 C   0  0  0  0  0  0  0  0  0  0  0  0
   10.4244   -1.0661   22.6680 C   0  0  1  0  0  0  0  0  0  0  0  0
    8.9981   -0.9675   22.2098 C   0  0  0  0  0  0  0  0  0  0  0  0
    8.6471   -0.1706   21.2118 N   0  0  0  0  0  0  0  0  0  0  0  0
    7.3366   -0.4675   21.0219 N   0  0  0  0  0  0  0  0  0  0  0  0
    6.6217    0.1270   19.9389 C   0  0  0  0  0  0  0  0  0  0  0  0
    5.3650    0.7378   20.0768 C   0  0  0  0  0  0  0  0  0  0  0  0
    4.7962    1.3353   18.9450 C   0  0  0  0  0  0  0  0  0  0  0  0
    5.4785    1.2838   17.7256 C   0  0  0  0  0  0  0  0  0  0  0  0
    6.6693    0.6750   17.5799 N   0  0  0  0  0  0  0  0  0  0  0  0
    7.2242    0.1316   18.6671 C   0  0  0  0  0  0  0  0  0  0  0  0
    6.9893   -1.4529   21.8952 C   0  0  0  0  0  0  0  0  0  0  0  0
    5.7070   -2.1955   21.7641 C   0  0  0  0  0  0  0  0  0  0  0  0
    5.6726   -3.1624   20.6204 C   0  0  0  0  0  0  0  0  0  0  0  0
    6.0392   -4.4604   20.5265 C   0  0  0  0  0  0  0  0  0  0  0  0
    5.9129   -4.8763   19.2614 O   0  0  0  0  0  0  0  0  0  0  0  0
    5.4646   -3.8360   18.4854 N   0  0  0  0  0  0  0  0  0  0  0  0
    5.3268   -2.8283   19.2808 C   0  0  0  0  0  0  0  0  0  0  0  0
    8.0043   -1.7657   22.6772 N   0  0  0  0  0  0  0  0  0  0  0  0
   11.3532   -1.2526   21.4433 C   0  0  0  0  0  0  0  0  0  0  0  0
   12.8229   -1.3855   21.8323 C   0  0  0  0  0  0  0  0  0  0  0  0
  1  2  2  0
  2  3  1  0
  3  4  1  0
  4  5  1  6
  5  6  2  0
  6  7  1  0
  7  8  1  0
  8  9  2  0
  9 10  1  0
 10 11  2  0
 11 12  1  0
 12 13  2  0
  7 14  1  0
 14 15  1  0
 15 16  1  0
 16 17  2  0
 17 18  1  0
 18 19  1  0
 19 20  2  0
 14 21  2  0
  4 22  1  0
 22 23  1  0
 23  1  1  0
 21  5  1  0
 13  8  1  0
 20 16  1  0
M  END
>  <cnnaffinity>  (452) 
-6.03261

>  <filename>  (452) 
C1=CCC(c2nc(Cc3cnoc3)n(-c3cccnc3)n2)CC1

>  <enamine_id>  (452) 
PV-007020784323

$$$$

     RDKit          3D

 24 27  0  0  0  0  0  0  0  0999 V2000
    9.2892    2.2429   21.0728 Br  0  0  0  0  0  0  0  0  0  0  0  0
    9.4205    1.9920   22.9429 C   0  0  0  0  0  0  0  0  0  0  0  0
   10.6628    2.0474   23.5750 C   0  0  0  0  0  0  0  0  0  0  0  0
   10.7549    1.7681   24.9385 C   0  0  0  0  0  0  0  0  0  0  0  0
    9.5986    1.4518   25.6609 C   0  0  0  0  0  0  0  0  0  0  0  0
    8.3552    1.4065   25.0278 C   0  0  0  0  0  0  0  0  0  0  0  0
    8.2634    1.6715   23.6602 C   0  0  0  0  0  0  0  0  0  0  0  0
    6.9996    1.3391   22.9057 C   0  0  0  0  0  0  0  0  0  0  0  0
    7.2574   -0.0290   22.3458 C   0  0  0  0  0  0  0  0  0  0  0  0
    7.7748   -0.9824   23.0739 N   0  0  0  0  0  0  0  0  0  0  0  0
    8.1324   -1.9295   22.1415 C   0  0  0  0  0  0  0  0  0  0  0  0
    8.9462   -3.1437   22.4710 C   0  0  2  0  0  0  0  0  0  0  0  0
    8.4427   -4.0425   23.6112 C   0  0  0  0  0  0  0  0  0  0  0  0
    9.4738   -3.8840   24.7188 C   0  0  0  0  0  0  0  0  0  0  0  0
   10.6746   -3.5765   24.0142 O   0  0  0  0  0  0  0  0  0  0  0  0
   10.3469   -2.7174   22.9212 C   0  0  0  0  0  0  0  0  0  0  0  0
    7.8320   -1.6217   20.9018 N   0  0  0  0  0  0  0  0  0  0  0  0
    7.2041   -0.4324   21.0152 N   0  0  0  0  0  0  0  0  0  0  0  0
    6.5813    0.2016   19.9249 C   0  0  0  0  0  0  0  0  0  0  0  0
    5.4624    1.0259   20.0825 C   0  0  0  0  0  0  0  0  0  0  0  0
    4.8828    1.5776   18.9336 C   0  0  0  0  0  0  0  0  0  0  0  0
    5.4312    1.3088   17.6744 C   0  0  0  0  0  0  0  0  0  0  0  0
    6.4972    0.5063   17.5160 N   0  0  0  0  0  0  0  0  0  0  0  0
    7.0529   -0.0383   18.6191 C   0  0  0  0  0  0  0  0  0  0  0  0
  1  2  1  0
  2  3  2  0
  3  4  1  0
  4  5  2  0
  5  6  1  0
  6  7  2  0
  7  8  1  0
  8  9  1  0
  9 10  2  0
 10 11  1  0
 12 11  1  1
 12 13  1  0
 13 14  1  0
 14 15  1  0
 15 16  1  0
 11 17  2  0
 17 18  1  0
 18 19  1  0
 19 20  2  0
 20 21  1  0
 21 22  2  0
 22 23  1  0
 23 24  2  0
  7  2  1  0
 18  9  1  0
 24 19  1  0
 16 12  1  0
M  END
>  <cnnaffinity>  (453) 
-6.02984

>  <filename>  (453) 
Brc1ccccc1Cc1nc(C2CCOC2)nn1-c1cccnc1

>  <enamine_id>  (453) 
PV-007158905724

$$$$

     RDKit          3D

 24 26  0  0  0  0  0  0  0  0999 V2000
    6.9922   -5.8881   21.3761 C   0  0  0  0  0  0  0  0  0  0  0  0
    6.7642   -4.8212   22.2723 O   0  0  0  0  0  0  0  0  0  0  0  0
    7.8600   -4.4494   23.0834 C   0  0  0  0  0  0  0  0  0  0  0  0
    8.7814   -3.4899   22.3250 C   0  0  0  0  0  0  0  0  0  0  0  0
    8.1878   -2.1573   22.0281 C   0  0  0  0  0  0  0  0  0  0  0  0
    7.8743   -1.2666   22.9477 N   0  0  0  0  0  0  0  0  0  0  0  0
    7.3590   -0.2389   22.2158 N   0  0  0  0  0  0  0  0  0  0  0  0
    7.1860    1.0991   22.8099 C   0  0  0  0  0  0  0  0  0  0  0  0
    8.4537    1.6190   23.4598 C   0  0  0  0  0  0  0  0  0  0  0  0
    9.5885    2.0198   22.7336 C   0  0  0  0  0  0  0  0  0  0  0  0
    9.5131    2.0781   21.0194 Cl  0  0  0  0  0  0  0  0  0  0  0  0
   10.7941    2.3199   23.3936 C   0  0  0  0  0  0  0  0  0  0  0  0
   12.1859    2.9188   22.5544 Cl  0  0  0  0  0  0  0  0  0  0  0  0
   10.8849    2.1584   24.7756 C   0  0  0  0  0  0  0  0  0  0  0  0
    9.7496    1.8177   25.5046 C   0  0  0  0  0  0  0  0  0  0  0  0
    8.5435    1.5775   24.8514 C   0  0  0  0  0  0  0  0  0  0  0  0
    7.3586   -0.5996   20.9088 C   0  0  0  0  0  0  0  0  0  0  0  0
    6.6295    0.1084   19.8698 C   0  0  0  0  0  0  0  0  0  0  0  0
    5.3905    0.7372   20.0838 C   0  0  0  0  0  0  0  0  0  0  0  0
    4.7812    1.3587   19.0015 C   0  0  0  0  0  0  0  0  0  0  0  0
    5.4189    1.3237   17.7546 C   0  0  0  0  0  0  0  0  0  0  0  0
    6.5752    0.6753   17.5320 N   0  0  0  0  0  0  0  0  0  0  0  0
    7.1485    0.0687   18.5717 C   0  0  0  0  0  0  0  0  0  0  0  0
    7.9499   -1.7701   20.7521 N   0  0  0  0  0  0  0  0  0  0  0  0
  1  2  1  0
  2  3  1  0
  3  4  1  0
  4  5  1  0
  5  6  2  0
  6  7  1  0
  7  8  1  0
  8  9  1  0
  9 10  2  0
 10 11  1  0
 10 12  1  0
 12 13  1  0
 12 14  2  0
 14 15  1  0
 15 16  2  0
  7 17  1  0
 17 18  1  0
 18 19  2  0
 19 20  1  0
 20 21  2  0
 21 22  1  0
 22 23  2  0
 17 24  2  0
 24  5  1  0
 16  9  1  0
 23 18  1  0
M  END
>  <cnnaffinity>  (454) 
-6.02979

>  <filename>  (454) 
COCCc1nc(-c2cccnc2)n(Cc2cccc(Cl)c2Cl)n1

>  <enamine_id>  (454) 
PV-003922646017

$$$$

     RDKit          3D

 24 27  0  0  0  0  0  0  0  0999 V2000
    7.7099    0.4653   27.3885 Br  0  0  0  0  0  0  0  0  0  0  0  0
    8.7692    0.9562   25.8784 C   0  0  0  0  0  0  0  0  0  0  0  0
   10.1649    0.8552   25.9185 C   0  0  0  0  0  0  0  0  0  0  0  0
   10.9327    1.2596   24.8268 C   0  0  0  0  0  0  0  0  0  0  0  0
   10.2983    1.7458   23.6844 C   0  0  0  0  0  0  0  0  0  0  0  0
    8.9018    1.7917   23.6024 C   0  0  0  0  0  0  0  0  0  0  0  0
    8.2498    2.1353   22.4493 O   0  0  0  0  0  0  0  0  0  0  0  0
    9.0200    2.0692   21.2370 C   0  0  0  0  0  0  0  0  0  0  0  0
    9.4950    0.6394   20.9409 C   0  0  0  0  0  0  0  0  0  0  0  0
    8.5335   -0.3917   21.4425 C   0  0  0  0  0  0  0  0  0  0  0  0
    8.7817   -1.1281   22.4815 N   0  0  0  0  0  0  0  0  0  0  0  0
    7.6185   -1.8686   22.6097 C   0  0  0  0  0  0  0  0  0  0  0  0
    7.4015   -2.8323   23.7449 C   0  0  0  0  0  0  0  0  0  0  0  0
    8.0287   -2.5622   25.1157 C   0  0  0  0  0  0  0  0  0  0  0  0
    6.5257   -2.3905   24.9188 C   0  0  0  0  0  0  0  0  0  0  0  0
    6.7139   -1.6608   21.6816 N   0  0  0  0  0  0  0  0  0  0  0  0
    7.2845   -0.7001   20.9239 N   0  0  0  0  0  0  0  0  0  0  0  0
    6.6364   -0.0295   19.8832 C   0  0  0  0  0  0  0  0  0  0  0  0
    5.4129    0.6005   20.1135 C   0  0  0  0  0  0  0  0  0  0  0  0
    4.8244    1.2875   19.0521 C   0  0  0  0  0  0  0  0  0  0  0  0
    5.4572    1.3219   17.8045 C   0  0  0  0  0  0  0  0  0  0  0  0
    6.6312    0.7040   17.5756 N   0  0  0  0  0  0  0  0  0  0  0  0
    7.2040    0.0452   18.6012 C   0  0  0  0  0  0  0  0  0  0  0  0
    8.1489    1.4320   24.7208 C   0  0  0  0  0  0  0  0  0  0  0  0
  1  2  1  0
  2  3  2  0
  3  4  1  0
  4  5  2  0
  5  6  1  0
  6  7  1  0
  7  8  1  0
  8  9  1  0
  9 10  1  0
 10 11  2  0
 11 12  1  0
 12 13  1  0
 13 14  1  0
 14 15  1  0
 12 16  2  0
 16 17  1  0
 17 18  1  0
 18 19  2  0
 19 20  1  0
 20 21  2  0
 21 22  1  0
 22 23  2  0
  6 24  2  0
 24  2  1  0
 17 10  1  0
 23 18  1  0
 15 13  1  0
M  END
>  <cnnaffinity>  (455) 
-6.02893

>  <filename>  (455) 
Brc1cccc(OCCc2nc(C3CC3)nn2-c2cccnc2)c1

>  <enamine_id>  (455) 
PV-006989247828

$$$$

     RDKit          3D

 24 27  0  0  0  0  0  0  0  0999 V2000
    9.3233    2.3781   22.5118 O   0  0  0  0  0  0  0  0  0  0  0  0
   10.3372    1.7041   22.5716 C   0  0  0  0  0  0  0  0  0  0  0  0
   11.3742    1.9976   23.6778 C   0  0  0  0  0  0  0  0  0  0  0  0
   12.3516    1.0006   23.9288 O   0  0  0  0  0  0  0  0  0  0  0  0
   12.8206    0.3753   22.7444 C   0  0  0  0  0  0  0  0  0  0  0  0
   11.6738   -0.2945   21.9957 C   0  0  0  0  0  0  0  0  0  0  0  0
   10.6384    0.6966   21.6664 N   0  0  0  0  0  0  0  0  0  0  0  0
    9.5785    0.2201   20.7678 C   0  0  0  0  0  0  0  0  0  0  0  0
    8.5734   -0.7059   21.4111 C   0  0  0  0  0  0  0  0  0  0  0  0
    8.7738   -1.5324   22.4185 N   0  0  0  0  0  0  0  0  0  0  0  0
    7.5410   -2.0559   22.6602 C   0  0  0  0  0  0  0  0  0  0  0  0
    7.2360   -2.9788   23.8099 C   0  0  0  0  0  0  0  0  0  0  0  0
    7.3470   -2.2823   25.1912 C   0  0  0  0  0  0  0  0  0  0  0  0
    8.8624   -2.2331   25.4450 C   0  0  0  0  0  0  0  0  0  0  0  0
    9.4114   -3.5466   24.8383 C   0  0  0  0  0  0  0  0  0  0  0  0
    8.2695   -4.1209   23.9567 C   0  0  0  0  0  0  0  0  0  0  0  0
    6.6086   -1.6328   21.8322 N   0  0  0  0  0  0  0  0  0  0  0  0
    7.2810   -0.8008   20.9939 N   0  0  0  0  0  0  0  0  0  0  0  0
    6.6264   -0.1463   19.9213 C   0  0  0  0  0  0  0  0  0  0  0  0
    5.4385    0.5539   20.1507 C   0  0  0  0  0  0  0  0  0  0  0  0
    4.8935    1.2737   19.0860 C   0  0  0  0  0  0  0  0  0  0  0  0
    5.5264    1.2437   17.8361 C   0  0  0  0  0  0  0  0  0  0  0  0
    6.6357    0.5238   17.6003 N   0  0  0  0  0  0  0  0  0  0  0  0
    7.1591   -0.1612   18.6209 C   0  0  0  0  0  0  0  0  0  0  0  0
  1  2  2  0
  2  3  1  0
  3  4  1  0
  4  5  1  0
  5  6  1  0
  6  7  1  0
  7  8  1  0
  8  9  1  0
  9 10  2  0
 10 11  1  0
 11 12  1  0
 12 13  1  0
 13 14  1  0
 14 15  1  0
 15 16  1  0
 11 17  2  0
 17 18  1  0
 18 19  1  0
 19 20  2  0
 20 21  1  0
 21 22  2  0
 22 23  1  0
 23 24  2  0
  7  2  1  0
 18  9  1  0
 24 19  1  0
 16 12  1  0
M  END
>  <cnnaffinity>  (456) 
-6.02823

>  <filename>  (456) 
O=C1COCCN1Cc1nc(C2CCCC2)nn1-c1cccnc1

>  <enamine_id>  (456) 
PV-006927325748

$$$$

     RDKit          3D

 25 28  0  0  0  0  0  0  0  0999 V2000
   11.6036    2.4581   23.2215 Cl  0  0  0  0  0  0  0  0  0  0  0  0
   10.0152    2.1736   23.8649 C   0  0  0  0  0  0  0  0  0  0  0  0
    9.9529    2.1284   25.1875 N   0  0  0  0  0  0  0  0  0  0  0  0
    8.7499    1.9045   25.7298 C   0  0  0  0  0  0  0  0  0  0  0  0
    7.5883    1.7240   24.9773 C   0  0  0  0  0  0  0  0  0  0  0  0
    7.6869    1.7816   23.5898 C   0  0  0  0  0  0  0  0  0  0  0  0
    8.9242    2.0330   22.9813 C   0  0  0  0  0  0  0  0  0  0  0  0
    9.0514    2.0084   21.4752 C   0  0  0  0  0  0  0  0  0  0  0  0
    9.5183    0.6234   20.9551 C   0  0  0  0  0  0  0  0  0  0  0  0
    8.6265   -0.4910   21.4103 C   0  0  0  0  0  0  0  0  0  0  0  0
    8.8371   -1.2882   22.4405 N   0  0  0  0  0  0  0  0  0  0  0  0
    7.6383   -1.9155   22.5933 C   0  0  0  0  0  0  0  0  0  0  0  0
    7.4015   -2.8522   23.7275 C   0  0  1  0  0  0  0  0  0  0  0  0
    8.4722   -3.9408   23.9144 C   0  0  0  0  0  0  0  0  0  0  0  0
    8.4237   -4.2259   25.4169 C   0  0  0  0  0  0  0  0  0  0  0  0
    7.8029   -3.1081   26.0327 O   0  0  0  0  0  0  0  0  0  0  0  0
    7.4127   -2.1357   25.0865 C   0  0  0  0  0  0  0  0  0  0  0  0
    6.7177   -1.5796   21.7229 N   0  0  0  0  0  0  0  0  0  0  0  0
    7.3580   -0.6723   20.9369 N   0  0  0  0  0  0  0  0  0  0  0  0
    6.6594    0.0056   19.8997 C   0  0  0  0  0  0  0  0  0  0  0  0
    5.4429    0.6467   20.1650 C   0  0  0  0  0  0  0  0  0  0  0  0
    4.8119    1.3119   19.1095 C   0  0  0  0  0  0  0  0  0  0  0  0
    5.4020    1.2950   17.8391 C   0  0  0  0  0  0  0  0  0  0  0  0
    6.5624    0.6751   17.5782 N   0  0  0  0  0  0  0  0  0  0  0  0
    7.1711    0.0544   18.5930 C   0  0  0  0  0  0  0  0  0  0  0  0
  1  2  1  0
  2  3  2  0
  3  4  1  0
  4  5  2  0
  5  6  1  0
  6  7  2  0
  7  8  1  0
  8  9  1  0
  9 10  1  0
 10 11  2  0
 11 12  1  0
 13 12  1  6
 13 14  1  0
 14 15  1  0
 15 16  1  0
 16 17  1  0
 12 18  2  0
 18 19  1  0
 19 20  1  0
 20 21  2  0
 21 22  1  0
 22 23  2  0
 23 24  1  0
 24 25  2  0
  7  2  1  0
 19 10  1  0
 25 20  1  0
 17 13  1  0
M  END
>  <cnnaffinity>  (457) 
-6.02763

>  <filename>  (457) 
Clc1ncccc1CCc1nc(C2CCOC2)nn1-c1cccnc1

>  <enamine_id>  (457) 
PV-006717686693

$$$$

     RDKit          3D

 26 28  0  0  0  0  0  0  0  0999 V2000
   11.6123    5.4212   22.8261 C   0  0  0  0  0  0  0  0  0  0  0  0
   10.6773    4.3424   22.9030 O   0  0  0  0  0  0  0  0  0  0  0  0
    9.3875    4.6899   23.1496 C   0  0  0  0  0  0  0  0  0  0  0  0
    9.0240    5.8314   23.3664 O   0  0  0  0  0  0  0  0  0  0  0  0
    8.5503    3.6073   23.1580 N   0  0  0  0  0  0  0  0  0  0  0  0
    7.1299    3.8534   23.3911 C   0  0  0  0  0  0  0  0  0  0  0  0
    8.9915    2.2599   22.8174 C   0  0  0  0  0  0  0  0  0  0  0  0
    9.0548    2.0377   21.3069 C   0  0  0  0  0  0  0  0  0  0  0  0
    9.5352    0.6186   20.9404 C   0  0  0  0  0  0  0  0  0  0  0  0
    8.6346   -0.4651   21.4314 C   0  0  0  0  0  0  0  0  0  0  0  0
    8.8611   -1.2854   22.4393 N   0  0  0  0  0  0  0  0  0  0  0  0
    7.6814   -1.9441   22.5681 C   0  0  0  0  0  0  0  0  0  0  0  0
    7.4342   -2.9270   23.6729 C   0  0  1  0  0  0  0  0  0  0  0  0
    6.5497   -2.3012   24.7915 C   0  0  0  0  0  0  0  0  0  0  0  0
    6.0716   -3.3247   25.7940 C   0  0  0  0  0  0  0  0  0  0  0  0
    6.0795   -4.6396   25.5626 C   0  0  0  0  0  0  0  0  0  0  0  0
    6.6426   -5.2587   24.3012 C   0  0  0  0  0  0  0  0  0  0  0  0
    6.8001   -4.2407   23.1582 C   0  0  0  0  0  0  0  0  0  0  0  0
    6.7502   -1.5932   21.6984 N   0  0  0  0  0  0  0  0  0  0  0  0
    7.3738   -0.6550   20.9462 N   0  0  0  0  0  0  0  0  0  0  0  0
    6.6667    0.0101   19.9051 C   0  0  0  0  0  0  0  0  0  0  0  0
    5.4439    0.6390   20.1648 C   0  0  0  0  0  0  0  0  0  0  0  0
    4.8132    1.3061   19.1101 C   0  0  0  0  0  0  0  0  0  0  0  0
    5.4002    1.2946   17.8386 C   0  0  0  0  0  0  0  0  0  0  0  0
    6.5569    0.6689   17.5779 N   0  0  0  0  0  0  0  0  0  0  0  0
    7.1696    0.0499   18.5920 C   0  0  0  0  0  0  0  0  0  0  0  0
  1  2  1  0
  2  3  1  0
  3  4  2  0
  3  5  1  0
  5  6  1  0
  5  7  1  0
  7  8  1  0
  8  9  1  0
  9 10  1  0
 10 11  2  0
 11 12  1  0
 13 12  1  6
 13 14  1  0
 14 15  1  0
 15 16  2  0
 16 17  1  0
 17 18  1  0
 12 19  2  0
 19 20  1  0
 20 21  1  0
 21 22  2  0
 22 23  1  0
 23 24  2  0
 24 25  1  0
 25 26  2  0
 20 10  1  0
 26 21  1  0
 18 13  1  0
M  END
>  <cnnaffinity>  (458) 
-6.02722

>  <filename>  (458) 
COC(=O)N(C)CCCc1nc(C2CC=CCC2)nn1-c1cccnc1

>  <enamine_id>  (458) 
PV-006769909216

$$$$

     RDKit          3D

 23 26  0  0  0  0  0  0  0  0999 V2000
    4.8129    1.3151   19.0989 C   0  0  0  0  0  0  0  0  0  0  0  0
    5.4086    1.3057   17.8326 C   0  0  0  0  0  0  0  0  0  0  0  0
    6.5598    0.6680   17.5675 N   0  0  0  0  0  0  0  0  0  0  0  0
    7.1674    0.0376   18.5796 C   0  0  0  0  0  0  0  0  0  0  0  0
    6.6609    0.0097   19.8912 C   0  0  0  0  0  0  0  0  0  0  0  0
    7.3463   -0.6579   20.9441 N   0  0  0  0  0  0  0  0  0  0  0  0
    6.6992   -1.5662   21.7193 N   0  0  0  0  0  0  0  0  0  0  0  0
    7.6589   -2.0120   22.5068 C   0  0  0  0  0  0  0  0  0  0  0  0
    7.4246   -2.9578   23.6237 C   0  0  0  0  0  0  0  0  0  0  0  0
    7.7810   -2.5652   25.0376 C   0  0  0  0  0  0  0  0  0  0  0  0
    6.3397   -2.7009   24.6362 C   0  0  0  0  0  0  0  0  0  0  0  0
    8.8883   -1.4763   22.2756 N   0  0  0  0  0  0  0  0  0  0  0  0
    8.6409   -0.5579   21.3678 C   0  0  0  0  0  0  0  0  0  0  0  0
    9.5335    0.5587   20.9328 C   0  0  0  0  0  0  0  0  0  0  0  0
    9.0224    1.9763   21.2923 C   0  0  0  0  0  0  0  0  0  0  0  0
    8.7492    2.2043   22.7991 C   0  0  0  0  0  0  0  0  0  0  0  0
    9.9780    1.9803   23.6431 C   0  0  0  0  0  0  0  0  0  0  0  0
   11.0927    2.8511   23.5631 C   0  0  0  0  0  0  0  0  0  0  0  0
   12.2802    2.5652   24.1259 N   0  0  0  0  0  0  0  0  0  0  0  0
   12.3315    1.4064   24.8118 C   0  0  0  0  0  0  0  0  0  0  0  0
   11.2097    0.5815   24.9750 C   0  0  0  0  0  0  0  0  0  0  0  0
   10.0274    0.8673   24.4009 N   0  0  0  0  0  0  0  0  0  0  0  0
    5.4413    0.6437   20.1504 C   0  0  0  0  0  0  0  0  0  0  0  0
  1  2  2  0
  2  3  1  0
  3  4  2  0
  4  5  1  0
  5  6  1  0
  6  7  1  0
  7  8  2  0
  8  9  1  0
  9 10  1  0
 10 11  1  0
  8 12  1  0
 12 13  2  0
 13 14  1  0
 14 15  1  0
 15 16  1  0
 16 17  1  0
 17 18  2  0
 18 19  1  0
 19 20  2  0
 20 21  1  0
 21 22  2  0
  5 23  2  0
 23  1  1  0
 13  6  1  0
 22 17  1  0
 11  9  1  0
M  END
>  <cnnaffinity>  (459) 
-6.02536

>  <filename>  (459) 
c1cncc(-n2nc(C3CC3)nc2CCCc2cnccn2)c1

>  <enamine_id>  (459) 
PV-006924090472

$$$$

     RDKit          3D

 28 31  0  0  0  0  0  0  0  0999 V2000
    6.9110    6.1149   26.2427 C   0  0  0  0  0  0  0  0  0  0  0  0
    7.4547    5.0284   25.3404 C   0  0  0  0  0  0  0  0  0  0  0  0
    7.6191    5.2360   23.9697 C   0  0  0  0  0  0  0  0  0  0  0  0
    8.0998    4.2259   23.1249 C   0  0  0  0  0  0  0  0  0  0  0  0
    8.4259    2.9721   23.6537 C   0  0  0  0  0  0  0  0  0  0  0  0
    8.9244    1.9378   22.9120 O   0  0  0  0  0  0  0  0  0  0  0  0
    9.0313    2.0176   21.4983 C   0  0  0  0  0  0  0  0  0  0  0  0
    9.5095    0.6526   21.0012 C   0  0  0  0  0  0  0  0  0  0  0  0
    8.6246   -0.4506   21.4440 C   0  0  0  0  0  0  0  0  0  0  0  0
    8.8658   -1.2791   22.4389 N   0  0  0  0  0  0  0  0  0  0  0  0
    7.6901   -1.9426   22.5689 C   0  0  0  0  0  0  0  0  0  0  0  0
    7.4458   -2.9463   23.6629 C   0  0  0  0  0  0  0  0  0  0  0  0
    6.3862   -2.4493   24.6809 C   0  0  0  0  0  0  0  0  0  0  0  0
    6.0354   -3.5392   25.6896 C   0  0  0  0  0  0  0  0  0  0  0  0
    5.6224   -4.7330   25.0452 O   0  0  0  0  0  0  0  0  0  0  0  0
    6.6413   -5.2791   24.2255 C   0  0  0  0  0  0  0  0  0  0  0  0
    7.0340   -4.3268   23.0970 C   0  0  0  0  0  0  0  0  0  0  0  0
    6.7575   -1.6052   21.6946 N   0  0  0  0  0  0  0  0  0  0  0  0
    7.3714   -0.6532   20.9463 N   0  0  0  0  0  0  0  0  0  0  0  0
    6.6608    0.0105   19.9040 C   0  0  0  0  0  0  0  0  0  0  0  0
    5.4388    0.6398   20.1679 C   0  0  0  0  0  0  0  0  0  0  0  0
    4.8129    1.3081   19.1098 C   0  0  0  0  0  0  0  0  0  0  0  0
    5.4007    1.2964   17.8378 C   0  0  0  0  0  0  0  0  0  0  0  0
    6.5586    0.6720   17.5750 N   0  0  0  0  0  0  0  0  0  0  0  0
    7.1679    0.0527   18.5927 C   0  0  0  0  0  0  0  0  0  0  0  0
    8.2622    2.7236   25.0432 C   0  0  0  0  0  0  0  0  0  0  0  0
    8.6027    1.3869   25.6584 C   0  0  0  0  0  0  0  0  0  0  0  0
    7.7845    3.7630   25.8472 C   0  0  0  0  0  0  0  0  0  0  0  0
  1  2  1  0
  2  3  2  0
  3  4  1  0
  4  5  2  0
  5  6  1  0
  6  7  1  0
  7  8  1  0
  8  9  1  0
  9 10  2  0
 10 11  1  0
 11 12  1  0
 12 13  1  0
 13 14  1  0
 14 15  1  0
 15 16  1  0
 16 17  1  0
 11 18  2  0
 18 19  1  0
 19 20  1  0
 20 21  2  0
 21 22  1  0
 22 23  2  0
 23 24  1  0
 24 25  2  0
  5 26  1  0
 26 27  1  0
 26 28  2  0
 28  2  1  0
 19  9  1  0
 25 20  1  0
 17 12  1  0
M  END
>  <cnnaffinity>  (460) 
-6.02395

>  <filename>  (460) 
Cc1ccc(OCCc2nc(C3CCOCC3)nn2-c2cccnc2)c(C)c1

>  <enamine_id>  (460) 
PV-007069852123

$$$$

     RDKit          3D

 24 27  0  0  0  0  0  0  0  0999 V2000
    6.8866    1.8166   23.6833 C   0  0  0  0  0  0  0  0  0  0  0  0
    8.3482    1.7925   24.0923 C   0  0  0  0  0  0  0  0  0  0  0  0
    8.7147    1.5296   25.4178 C   0  0  0  0  0  0  0  0  0  0  0  0
   10.0707    1.3781   25.7365 C   0  0  0  0  0  0  0  0  0  0  0  0
   11.0278    1.6365   24.7536 C   0  0  0  0  0  0  0  0  0  0  0  0
   10.7066    1.9287   23.4914 N   0  0  0  0  0  0  0  0  0  0  0  0
    9.4069    1.9367   23.1464 C   0  0  0  0  0  0  0  0  0  0  0  0
    9.1781    1.9698   21.6472 C   0  0  0  0  0  0  0  0  0  0  0  0
    9.5083    0.6032   20.9703 C   0  0  0  0  0  0  0  0  0  0  0  0
    8.6208   -0.5241   21.3902 C   0  0  0  0  0  0  0  0  0  0  0  0
    8.8389   -1.3796   22.3746 N   0  0  0  0  0  0  0  0  0  0  0  0
    7.6275   -1.9649   22.5439 C   0  0  0  0  0  0  0  0  0  0  0  0
    7.3647   -2.8772   23.6949 C   0  0  0  0  0  0  0  0  0  0  0  0
    6.4725   -4.1035   23.3778 C   0  0  0  0  0  0  0  0  0  0  0  0
    5.1902   -3.5631   24.5571 S   0  0  0  0  0  0  0  0  0  0  0  0
    6.4459   -2.2638   24.7982 C   0  0  0  0  0  0  0  0  0  0  0  0
    6.6933   -1.5742   21.6992 N   0  0  0  0  0  0  0  0  0  0  0  0
    7.3438   -0.6627   20.9293 N   0  0  0  0  0  0  0  0  0  0  0  0
    6.6547   -0.0003   19.8794 C   0  0  0  0  0  0  0  0  0  0  0  0
    5.4377    0.6329   20.1443 C   0  0  0  0  0  0  0  0  0  0  0  0
    4.8096    1.3084   19.0972 C   0  0  0  0  0  0  0  0  0  0  0  0
    5.4021    1.2975   17.8284 C   0  0  0  0  0  0  0  0  0  0  0  0
    6.5484    0.6538   17.5566 N   0  0  0  0  0  0  0  0  0  0  0  0
    7.1592    0.0224   18.5651 C   0  0  0  0  0  0  0  0  0  0  0  0
  1  2  1  0
  2  3  2  0
  3  4  1  0
  4  5  2  0
  5  6  1  0
  6  7  2  0
  7  8  1  0
  8  9  1  0
  9 10  1  0
 10 11  2  0
 11 12  1  0
 12 13  1  0
 13 14  1  0
 14 15  1  0
 15 16  1  0
 12 17  2  0
 17 18  1  0
 18 19  1  0
 19 20  2  0
 20 21  1  0
 21 22  2  0
 22 23  1  0
 23 24  2  0
  7  2  1  0
 18 10  1  0
 24 19  1  0
 16 13  1  0
M  END
>  <cnnaffinity>  (461) 
-6.02358

>  <filename>  (461) 
Cc1cccnc1CCc1nc(C2CSC2)nn1-c1cccnc1

>  <enamine_id>  (461) 
PV-006962028104

$$$$

     RDKit          3D

 26 29  0  0  0  0  0  0  0  0999 V2000
    3.2650    3.4362   23.5874 C   0  0  0  0  0  0  0  0  0  0  0  0
    4.6289    3.2248   24.2364 C   0  0  0  0  0  0  0  0  0  0  0  0
    5.0426    1.4346   24.2325 S   0  0  0  0  0  0  0  0  0  0  0  0
    6.7058    1.4851   24.8850 C   0  0  0  0  0  0  0  0  0  0  0  0
    6.9035    1.3697   26.2739 C   0  0  0  0  0  0  0  0  0  0  0  0
    8.1811    1.4956   26.8288 C   0  0  0  0  0  0  0  0  0  0  0  0
    9.2770    1.7352   25.9945 C   0  0  0  0  0  0  0  0  0  0  0  0
    9.0870    1.8025   24.6129 C   0  0  0  0  0  0  0  0  0  0  0  0
    7.8226    1.6263   24.0338 C   0  0  0  0  0  0  0  0  0  0  0  0
    7.7336    1.4095   22.5371 C   0  0  0  0  0  0  0  0  0  0  0  0
    7.6735   -0.0512   22.1714 C   0  0  0  0  0  0  0  0  0  0  0  0
    8.2365   -1.0393   22.8456 N   0  0  0  0  0  0  0  0  0  0  0  0
    8.1004   -2.1026   22.0200 C   0  0  0  0  0  0  0  0  0  0  0  0
    8.6752   -3.4468   22.3213 C   0  0  2  0  0  0  0  0  0  0  0  0
    7.9217   -4.6627   21.7205 C   0  0  0  0  0  0  0  0  0  0  0  0
    8.2754   -5.8098   22.6847 C   0  0  0  0  0  0  0  0  0  0  0  0
    8.9685   -5.2268   23.7798 O   0  0  0  0  0  0  0  0  0  0  0  0
    8.7535   -3.8260   23.8028 C   0  0  0  0  0  0  0  0  0  0  0  0
    7.5259   -1.8388   20.8625 N   0  0  0  0  0  0  0  0  0  0  0  0
    7.2061   -0.5285   20.9772 N   0  0  0  0  0  0  0  0  0  0  0  0
    6.5331    0.0999   19.9010 C   0  0  0  0  0  0  0  0  0  0  0  0
    5.3411    0.8004   20.0977 C   0  0  0  0  0  0  0  0  0  0  0  0
    4.7542    1.4098   18.9815 C   0  0  0  0  0  0  0  0  0  0  0  0
    5.3910    1.3109   17.7410 C   0  0  0  0  0  0  0  0  0  0  0  0
    6.5170    0.6007   17.5446 N   0  0  0  0  0  0  0  0  0  0  0  0
    7.0519   -0.0223   18.5990 C   0  0  0  0  0  0  0  0  0  0  0  0
  1  2  1  0
  2  3  1  0
  3  4  1  0
  4  5  2  0
  5  6  1  0
  6  7  2  0
  7  8  1  0
  8  9  2  0
  9 10  1  0
 10 11  1  0
 11 12  2  0
 12 13  1  0
 14 13  1  1
 14 15  1  0
 15 16  1  0
 16 17  1  0
 17 18  1  0
 13 19  2  0
 19 20  1  0
 20 21  1  0
 21 22  2  0
 22 23  1  0
 23 24  2  0
 24 25  1  0
 25 26  2  0
  9  4  1  0
 20 11  1  0
 26 21  1  0
 18 14  1  0
M  END
>  <cnnaffinity>  (462) 
-6.02286

>  <filename>  (462) 
CCSc1ccccc1Cc1nc(C2CCOC2)nn1-c1cccnc1

>  <enamine_id>  (462) 
PV-007103422562

$$$$

     RDKit          3D

 23 26  0  0  0  0  0  0  0  0999 V2000
    6.6830    1.6582   23.3373 Cl  0  0  0  0  0  0  0  0  0  0  0  0
    8.3425    1.7882   23.8491 C   0  0  0  0  0  0  0  0  0  0  0  0
    8.5393    1.5643   25.1397 N   0  0  0  0  0  0  0  0  0  0  0  0
    9.7990    1.5889   25.5854 C   0  0  0  0  0  0  0  0  0  0  0  0
   10.8876    1.8871   24.7661 C   0  0  0  0  0  0  0  0  0  0  0  0
   10.6588    2.1127   23.4094 C   0  0  0  0  0  0  0  0  0  0  0  0
    9.3521    2.0607   22.8985 C   0  0  0  0  0  0  0  0  0  0  0  0
    9.1530    2.0257   21.4007 C   0  0  0  0  0  0  0  0  0  0  0  0
    9.5036    0.6034   20.8917 C   0  0  0  0  0  0  0  0  0  0  0  0
    8.6118   -0.4824   21.3910 C   0  0  0  0  0  0  0  0  0  0  0  0
    8.8640   -1.3448   22.3560 N   0  0  0  0  0  0  0  0  0  0  0  0
    7.6808   -2.0091   22.4896 C   0  0  0  0  0  0  0  0  0  0  0  0
    7.4552   -3.0446   23.5248 C   0  0  0  0  0  0  0  0  0  0  0  0
    7.0191   -4.4391   23.1533 C   0  0  0  0  0  0  0  0  0  0  0  0
    8.4085   -4.1995   23.6755 C   0  0  0  0  0  0  0  0  0  0  0  0
    6.7282   -1.6203   21.6652 N   0  0  0  0  0  0  0  0  0  0  0  0
    7.3429   -0.6664   20.9230 N   0  0  0  0  0  0  0  0  0  0  0  0
    6.6459   -0.0129   19.8741 C   0  0  0  0  0  0  0  0  0  0  0  0
    5.4385    0.6332   20.1490 C   0  0  0  0  0  0  0  0  0  0  0  0
    4.8172    1.3129   19.0972 C   0  0  0  0  0  0  0  0  0  0  0  0
    5.4016    1.3028   17.8269 C   0  0  0  0  0  0  0  0  0  0  0  0
    6.5329    0.6360   17.5478 N   0  0  0  0  0  0  0  0  0  0  0  0
    7.1306   -0.0102   18.5548 C   0  0  0  0  0  0  0  0  0  0  0  0
  1  2  1  0
  2  3  2  0
  3  4  1  0
  4  5  2  0
  5  6  1  0
  6  7  2  0
  7  8  1  0
  8  9  1  0
  9 10  1  0
 10 11  2  0
 11 12  1  0
 12 13  1  0
 13 14  1  0
 14 15  1  0
 12 16  2  0
 16 17  1  0
 17 18  1  0
 18 19  2  0
 19 20  1  0
 20 21  2  0
 21 22  1  0
 22 23  2  0
  7  2  1  0
 17 10  1  0
 23 18  1  0
 15 13  1  0
M  END
>  <cnnaffinity>  (463) 
-6.02275

>  <filename>  (463) 
Clc1ncccc1CCc1nc(C2CC2)nn1-c1cccnc1

>  <enamine_id>  (463) 
PV-007153345157

$$$$

     RDKit          3D

 26 29  0  0  0  0  0  0  0  0999 V2000
   11.3908    2.7547   23.2101 C   0  0  0  0  0  0  0  0  0  0  0  0
   10.0637    2.3177   23.8012 C   0  0  0  0  0  0  0  0  0  0  0  0
    9.9508    2.1297   25.1857 C   0  0  0  0  0  0  0  0  0  0  0  0
    8.7233    1.8795   25.8039 C   0  0  0  0  0  0  0  0  0  0  0  0
    7.5927    1.6732   25.0081 C   0  0  0  0  0  0  0  0  0  0  0  0
    7.7065    1.7363   23.6176 C   0  0  0  0  0  0  0  0  0  0  0  0
    8.9227    2.0753   22.9997 C   0  0  0  0  0  0  0  0  0  0  0  0
    9.0303    2.0197   21.4851 C   0  0  0  0  0  0  0  0  0  0  0  0
    9.5102    0.6319   20.9707 C   0  0  0  0  0  0  0  0  0  0  0  0
    8.6306   -0.4990   21.3955 C   0  0  0  0  0  0  0  0  0  0  0  0
    8.8658   -1.3382   22.3845 N   0  0  0  0  0  0  0  0  0  0  0  0
    7.6605   -1.9474   22.5687 C   0  0  0  0  0  0  0  0  0  0  0  0
    7.3952   -2.8683   23.7316 C   0  0  0  0  0  0  0  0  0  0  0  0
    8.5070   -3.9364   23.8819 C   0  0  0  0  0  0  0  0  0  0  0  0
    8.2892   -4.7632   25.1519 C   0  0  0  0  0  0  0  0  0  0  0  0
    8.2120   -3.9436   26.3049 O   0  0  0  0  0  0  0  0  0  0  0  0
    7.1300   -3.0311   26.2549 C   0  0  0  0  0  0  0  0  0  0  0  0
    7.2593   -2.0744   25.0672 C   0  0  0  0  0  0  0  0  0  0  0  0
    6.7206   -1.5766   21.7237 N   0  0  0  0  0  0  0  0  0  0  0  0
    7.3563   -0.6645   20.9405 N   0  0  0  0  0  0  0  0  0  0  0  0
    6.6596    0.0046   19.8947 C   0  0  0  0  0  0  0  0  0  0  0  0
    5.4448    0.6446   20.1558 C   0  0  0  0  0  0  0  0  0  0  0  0
    4.8111    1.3125   19.1044 C   0  0  0  0  0  0  0  0  0  0  0  0
    5.3988    1.2964   17.8350 C   0  0  0  0  0  0  0  0  0  0  0  0
    6.5537    0.6657   17.5728 N   0  0  0  0  0  0  0  0  0  0  0  0
    7.1665    0.0436   18.5859 C   0  0  0  0  0  0  0  0  0  0  0  0
  1  2  1  0
  2  3  2  0
  3  4  1  0
  4  5  2  0
  5  6  1  0
  6  7  2  0
  7  8  1  0
  8  9  1  0
  9 10  1  0
 10 11  2  0
 11 12  1  0
 12 13  1  0
 13 14  1  0
 14 15  1  0
 15 16  1  0
 16 17  1  0
 17 18  1  0
 12 19  2  0
 19 20  1  0
 20 21  1  0
 21 22  2  0
 22 23  1  0
 23 24  2  0
 24 25  1  0
 25 26  2  0
  7  2  1  0
 20 10  1  0
 26 21  1  0
 18 13  1  0
M  END
>  <cnnaffinity>  (464) 
-6.02222

>  <filename>  (464) 
Cc1ccccc1CCc1nc(C2CCOCC2)nn1-c1cccnc1

>  <enamine_id>  (464) 
PV-006975383658

$$$$

     RDKit          3D

 23 25  0  0  0  0  0  0  0  0999 V2000
    6.7247   -3.1603   26.0873 C   0  0  0  0  0  0  0  0  0  0  0  0
    6.9985   -2.1973   24.9374 C   0  0  0  0  0  0  0  0  0  0  0  0
    7.4129   -2.9464   23.6645 C   0  0  0  0  0  0  0  0  0  0  0  0
    7.6547   -1.9710   22.5479 C   0  0  0  0  0  0  0  0  0  0  0  0
    6.7188   -1.6504   21.6885 N   0  0  0  0  0  0  0  0  0  0  0  0
    7.3141   -0.7010   20.9317 N   0  0  0  0  0  0  0  0  0  0  0  0
    6.6660    0.0028   19.9105 C   0  0  0  0  0  0  0  0  0  0  0  0
    5.4476    0.6419   20.1626 C   0  0  0  0  0  0  0  0  0  0  0  0
    4.8193    1.3058   19.1057 C   0  0  0  0  0  0  0  0  0  0  0  0
    5.4025    1.2950   17.8305 C   0  0  0  0  0  0  0  0  0  0  0  0
    6.5741    0.6796   17.5820 N   0  0  0  0  0  0  0  0  0  0  0  0
    7.1902    0.0597   18.6059 C   0  0  0  0  0  0  0  0  0  0  0  0
    8.5998   -0.4840   21.4099 C   0  0  0  0  0  0  0  0  0  0  0  0
    9.5425    0.5952   20.9584 C   0  0  0  0  0  0  0  0  0  0  0  0
    9.2342    1.9054   21.7054 C   0  0  0  0  0  0  0  0  0  0  0  0
    9.4998    1.7580   23.1834 C   0  0  0  0  0  0  0  0  0  0  0  0
   10.8145    1.7681   23.6399 C   0  0  0  0  0  0  0  0  0  0  0  0
   11.0881    1.6061   24.9944 C   0  0  0  0  0  0  0  0  0  0  0  0
   10.1227    1.4449   25.9072 N   0  0  0  0  0  0  0  0  0  0  0  0
    8.8473    1.4364   25.4831 C   0  0  0  0  0  0  0  0  0  0  0  0
    8.4864    1.5920   24.1372 C   0  0  0  0  0  0  0  0  0  0  0  0
    6.6291    1.5641   23.6584 Br  0  0  0  0  0  0  0  0  0  0  0  0
    8.8579   -1.3009   22.3882 N   0  0  0  0  0  0  0  0  0  0  0  0
  1  2  1  0
  2  3  1  0
  3  4  1  0
  4  5  2  0
  5  6  1  0
  6  7  1  0
  7  8  2  0
  8  9  1  0
  9 10  2  0
 10 11  1  0
 11 12  2  0
  6 13  1  0
 13 14  1  0
 14 15  1  0
 15 16  1  0
 16 17  2  0
 17 18  1  0
 18 19  2  0
 19 20  1  0
 20 21  2  0
 21 22  1  0
 13 23  2  0
 23  4  1  0
 12  7  1  0
 21 16  1  0
M  END
>  <cnnaffinity>  (465) 
-6.02061

>  <filename>  (465) 
CCCc1nc(CCc2ccncc2Br)n(-c2cccnc2)n1

>  <enamine_id>  (465) 
PV-007084841133

$$$$

     RDKit          3D

 24 26  0  0  0  0  0  0  0  0999 V2000
    6.7606   -2.9897   26.1849 C   0  0  0  0  0  0  0  0  0  0  0  0
    7.0613   -2.0737   25.0050 C   0  0  0  0  0  0  0  0  0  0  0  0
    7.3996   -2.8550   23.7226 C   0  0  0  0  0  0  0  0  0  0  0  0
    7.6672   -1.9644   22.5602 C   0  0  0  0  0  0  0  0  0  0  0  0
    6.7358   -1.6082   21.7023 N   0  0  0  0  0  0  0  0  0  0  0  0
    7.3593   -0.6736   20.9389 N   0  0  0  0  0  0  0  0  0  0  0  0
    6.6568   -0.0002   19.9012 C   0  0  0  0  0  0  0  0  0  0  0  0
    5.4408    0.6408   20.1654 C   0  0  0  0  0  0  0  0  0  0  0  0
    4.8135    1.3093   19.1099 C   0  0  0  0  0  0  0  0  0  0  0  0
    5.3988    1.2962   17.8382 C   0  0  0  0  0  0  0  0  0  0  0  0
    6.5567    0.6700   17.5754 N   0  0  0  0  0  0  0  0  0  0  0  0
    7.1650    0.0465   18.5907 C   0  0  0  0  0  0  0  0  0  0  0  0
    8.6359   -0.5105   21.4002 C   0  0  0  0  0  0  0  0  0  0  0  0
    9.5236    0.6047   20.9508 C   0  0  0  0  0  0  0  0  0  0  0  0
    9.1039    1.9881   21.5270 C   0  0  0  0  0  0  0  0  0  0  0  0
    9.1074    1.9858   23.0402 C   0  0  0  0  0  0  0  0  0  0  0  0
    7.9616    1.7519   23.8097 C   0  0  0  0  0  0  0  0  0  0  0  0
    6.7803    1.6186   23.1810 F   0  0  0  0  0  0  0  0  0  0  0  0
    7.9673    1.6536   25.1955 C   0  0  0  0  0  0  0  0  0  0  0  0
    9.1838    1.7711   25.8642 C   0  0  0  0  0  0  0  0  0  0  0  0
   10.3718    1.9641   25.1548 C   0  0  0  0  0  0  0  0  0  0  0  0
   10.2986    2.0626   23.7706 C   0  0  0  0  0  0  0  0  0  0  0  0
   11.4466    2.2416   23.0865 F   0  0  0  0  0  0  0  0  0  0  0  0
    8.8708   -1.3496   22.3902 N   0  0  0  0  0  0  0  0  0  0  0  0
  1  2  1  0
  2  3  1  0
  3  4  1  0
  4  5  2  0
  5  6  1  0
  6  7  1  0
  7  8  2  0
  8  9  1  0
  9 10  2  0
 10 11  1  0
 11 12  2  0
  6 13  1  0
 13 14  1  0
 14 15  1  0
 15 16  1  0
 16 17  2  0
 17 18  1  0
 17 19  1  0
 19 20  2  0
 20 21  1  0
 21 22  2  0
 22 23  1  0
 13 24  2  0
 24  4  1  0
 12  7  1  0
 22 16  1  0
M  END
>  <cnnaffinity>  (466) 
-6.02019

>  <filename>  (466) 
CCCc1nc(CCc2c(F)cccc2F)n(-c2cccnc2)n1

>  <enamine_id>  (466) 
PV-006968508945

$$$$

     RDKit          3D

 25 28  0  0  0  0  0  0  0  0999 V2000
    7.8464    0.7200   27.1371 C   0  0  0  0  0  0  0  0  0  0  0  0
    8.6869    1.0836   25.9285 C   0  0  0  0  0  0  0  0  0  0  0  0
   10.0851    1.0952   26.0288 C   0  0  0  0  0  0  0  0  0  0  0  0
   10.8785    1.5791   24.9945 C   0  0  0  0  0  0  0  0  0  0  0  0
   10.2931    1.9996   23.8021 C   0  0  0  0  0  0  0  0  0  0  0  0
    8.9089    1.8584   23.6347 C   0  0  0  0  0  0  0  0  0  0  0  0
    8.2786    2.1374   22.4511 O   0  0  0  0  0  0  0  0  0  0  0  0
    8.9694    2.0162   21.2177 C   0  0  0  0  0  0  0  0  0  0  0  0
    9.5149    0.6030   20.9408 C   0  0  0  0  0  0  0  0  0  0  0  0
    8.6107   -0.4759   21.4231 C   0  0  0  0  0  0  0  0  0  0  0  0
    8.8697   -1.3102   22.4001 N   0  0  0  0  0  0  0  0  0  0  0  0
    7.6682   -1.9241   22.6091 C   0  0  0  0  0  0  0  0  0  0  0  0
    7.4451   -2.8577   23.7307 C   0  0  0  0  0  0  0  0  0  0  0  0
    8.5924   -3.6484   24.3130 C   0  0  0  0  0  0  0  0  0  0  0  0
    7.9975   -2.5303   25.1065 C   0  0  0  0  0  0  0  0  0  0  0  0
    6.7125   -1.5595   21.7744 N   0  0  0  0  0  0  0  0  0  0  0  0
    7.3329   -0.6412   20.9839 N   0  0  0  0  0  0  0  0  0  0  0  0
    6.6453    0.0003   19.9149 C   0  0  0  0  0  0  0  0  0  0  0  0
    5.4265    0.6419   20.1544 C   0  0  0  0  0  0  0  0  0  0  0  0
    4.8108    1.3115   19.0954 C   0  0  0  0  0  0  0  0  0  0  0  0
    5.4172    1.2962   17.8335 C   0  0  0  0  0  0  0  0  0  0  0  0
    6.5685    0.6541   17.5848 N   0  0  0  0  0  0  0  0  0  0  0  0
    7.1639    0.0247   18.6060 C   0  0  0  0  0  0  0  0  0  0  0  0
    8.0775    1.4307   24.7003 C   0  0  0  0  0  0  0  0  0  0  0  0
    6.5700    1.3256   24.5239 C   0  0  0  0  0  0  0  0  0  0  0  0
  1  2  1  0
  2  3  2  0
  3  4  1  0
  4  5  2  0
  5  6  1  0
  6  7  1  0
  7  8  1  0
  8  9  1  0
  9 10  1  0
 10 11  2  0
 11 12  1  0
 12 13  1  0
 13 14  1  0
 14 15  1  0
 12 16  2  0
 16 17  1  0
 17 18  1  0
 18 19  2  0
 19 20  1  0
 20 21  2  0
 21 22  1  0
 22 23  2  0
  6 24  2  0
 24 25  1  0
 24  2  1  0
 17 10  1  0
 23 18  1  0
 15 13  1  0
M  END
>  <cnnaffinity>  (467) 
-6.0195

>  <filename>  (467) 
Cc1cccc(OCCc2nc(C3CC3)nn2-c2cccnc2)c1C

>  <enamine_id>  (467) 
PV-007024887137

$$$$

     RDKit          3D

 26 29  0  0  0  0  0  0  0  0999 V2000
    6.9765    3.3536   27.2382 C   0  0  0  0  0  0  0  0  0  0  0  0
    7.3632    3.6171   25.7950 C   0  0  0  0  0  0  0  0  0  0  0  0
    7.1246    4.8922   25.2587 C   0  0  0  0  0  0  0  0  0  0  0  0
    7.4541    5.1784   23.9357 C   0  0  0  0  0  0  0  0  0  0  0  0
    8.0237    4.1968   23.1205 C   0  0  0  0  0  0  0  0  0  0  0  0
    8.2682    2.9185   23.6410 C   0  0  0  0  0  0  0  0  0  0  0  0
    8.8376    1.9120   22.9058 O   0  0  0  0  0  0  0  0  0  0  0  0
    9.0192    2.0089   21.4991 C   0  0  0  0  0  0  0  0  0  0  0  0
    9.5085    0.6430   21.0007 C   0  0  0  0  0  0  0  0  0  0  0  0
    8.6279   -0.4633   21.4511 C   0  0  0  0  0  0  0  0  0  0  0  0
    8.8545   -1.2811   22.4625 N   0  0  0  0  0  0  0  0  0  0  0  0
    7.6683   -1.9230   22.5991 C   0  0  0  0  0  0  0  0  0  0  0  0
    7.3927   -2.8462   23.7395 C   0  0  0  0  0  0  0  0  0  0  0  0
    6.6010   -4.1256   23.3649 C   0  0  0  0  0  0  0  0  0  0  0  0
    5.2198   -3.6713   24.4688 S   0  0  0  0  0  0  0  0  0  0  0  0
    6.3676   -2.2849   24.7718 C   0  0  0  0  0  0  0  0  0  0  0  0
    6.7473   -1.5903   21.7187 N   0  0  0  0  0  0  0  0  0  0  0  0
    7.3719   -0.6585   20.9519 N   0  0  0  0  0  0  0  0  0  0  0  0
    6.6621    0.0081   19.9072 C   0  0  0  0  0  0  0  0  0  0  0  0
    5.4407    0.6401   20.1692 C   0  0  0  0  0  0  0  0  0  0  0  0
    4.8141    1.3076   19.1114 C   0  0  0  0  0  0  0  0  0  0  0  0
    5.4009    1.2955   17.8390 C   0  0  0  0  0  0  0  0  0  0  0  0
    6.5600    0.6716   17.5781 N   0  0  0  0  0  0  0  0  0  0  0  0
    7.1692    0.0516   18.5955 C   0  0  0  0  0  0  0  0  0  0  0  0
    7.9565    2.6137   24.9937 C   0  0  0  0  0  0  0  0  0  0  0  0
    8.2095    1.2319   25.5767 C   0  0  0  0  0  0  0  0  0  0  0  0
  1  2  1  0
  2  3  2  0
  3  4  1  0
  4  5  2  0
  5  6  1  0
  6  7  1  0
  7  8  1  0
  8  9  1  0
  9 10  1  0
 10 11  2  0
 11 12  1  0
 12 13  1  0
 13 14  1  0
 14 15  1  0
 15 16  1  0
 12 17  2  0
 17 18  1  0
 18 19  1  0
 19 20  2  0
 20 21  1  0
 21 22  2  0
 22 23  1  0
 23 24  2  0
  6 25  2  0
 25 26  1  0
 25  2  1  0
 18 10  1  0
 24 19  1  0
 16 13  1  0
M  END
>  <cnnaffinity>  (468) 
-6.01862

>  <filename>  (468) 
Cc1cccc(OCCc2nc(C3CSC3)nn2-c2cccnc2)c1C

>  <enamine_id>  (468) 
PV-007164046599

$$$$

     RDKit          3D

 26 29  0  0  0  0  0  0  0  0999 V2000
    6.6090    5.9790   26.2117 C   0  0  0  0  0  0  0  0  0  0  0  0
    7.2242    4.9221   25.3210 C   0  0  0  0  0  0  0  0  0  0  0  0
    7.5029    5.1785   23.9777 C   0  0  0  0  0  0  0  0  0  0  0  0
    8.0434    4.1944   23.1384 C   0  0  0  0  0  0  0  0  0  0  0  0
    8.3128    2.9185   23.6446 C   0  0  0  0  0  0  0  0  0  0  0  0
    8.8644    1.9086   22.9061 O   0  0  0  0  0  0  0  0  0  0  0  0
    9.0248    2.0080   21.4985 C   0  0  0  0  0  0  0  0  0  0  0  0
    9.5084    0.6421   20.9989 C   0  0  0  0  0  0  0  0  0  0  0  0
    8.6271   -0.4672   21.4471 C   0  0  0  0  0  0  0  0  0  0  0  0
    8.8559   -1.2909   22.4531 N   0  0  0  0  0  0  0  0  0  0  0  0
    7.6695   -1.9322   22.5901 C   0  0  0  0  0  0  0  0  0  0  0  0
    7.3979   -2.8707   23.7197 C   0  0  0  0  0  0  0  0  0  0  0  0
    6.3389   -2.3494   24.7374 C   0  0  0  0  0  0  0  0  0  0  0  0
    5.2351   -3.7634   24.3970 S   0  0  0  0  0  0  0  0  0  0  0  0
    6.6507   -4.1688   23.3182 C   0  0  0  0  0  0  0  0  0  0  0  0
    6.7465   -1.5965   21.7121 N   0  0  0  0  0  0  0  0  0  0  0  0
    7.3704   -0.6611   20.9497 N   0  0  0  0  0  0  0  0  0  0  0  0
    6.6616    0.0073   19.9062 C   0  0  0  0  0  0  0  0  0  0  0  0
    5.4405    0.6394   20.1691 C   0  0  0  0  0  0  0  0  0  0  0  0
    4.8134    1.3078   19.1114 C   0  0  0  0  0  0  0  0  0  0  0  0
    5.4010    1.2956   17.8392 C   0  0  0  0  0  0  0  0  0  0  0  0
    6.5600    0.6721   17.5783 N   0  0  0  0  0  0  0  0  0  0  0  0
    7.1695    0.0520   18.5952 C   0  0  0  0  0  0  0  0  0  0  0  0
    8.0390    2.6225   25.0075 C   0  0  0  0  0  0  0  0  0  0  0  0
    8.3004    1.2535   25.5915 C   0  0  0  0  0  0  0  0  0  0  0  0
    7.5036    3.6365   25.8082 C   0  0  0  0  0  0  0  0  0  0  0  0
  1  2  1  0
  2  3  2  0
  3  4  1  0
  4  5  2  0
  5  6  1  0
  6  7  1  0
  7  8  1  0
  8  9  1  0
  9 10  2  0
 10 11  1  0
 11 12  1  0
 12 13  1  0
 13 14  1  0
 14 15  1  0
 11 16  2  0
 16 17  1  0
 17 18  1  0
 18 19  2  0
 19 20  1  0
 20 21  2  0
 21 22  1  0
 22 23  2  0
  5 24  1  0
 24 25  1  0
 24 26  2  0
 26  2  1  0
 17  9  1  0
 23 18  1  0
 15 12  1  0
M  END
>  <cnnaffinity>  (469) 
-6.01824

>  <filename>  (469) 
Cc1ccc(OCCc2nc(C3CSC3)nn2-c2cccnc2)c(C)c1

>  <enamine_id>  (469) 
PV-006935339074

$$$$

     RDKit          3D

 25 28  0  0  0  0  0  0  0  0999 V2000
   10.6827    0.7035   26.0400 C   0  0  0  0  0  0  0  0  0  0  0  0
    9.2879    0.8100   26.0434 C   0  0  0  0  0  0  0  0  0  0  0  0
    8.6220    1.3187   24.9303 C   0  0  0  0  0  0  0  0  0  0  0  0
    9.3448    1.7119   23.7970 C   0  0  0  0  0  0  0  0  0  0  0  0
    8.5767    2.1089   22.7417 O   0  0  0  0  0  0  0  0  0  0  0  0
    9.0714    2.0287   21.4119 C   0  0  0  0  0  0  0  0  0  0  0  0
    9.5367    0.6218   20.9801 C   0  0  0  0  0  0  0  0  0  0  0  0
    8.6329   -0.4848   21.4222 C   0  0  0  0  0  0  0  0  0  0  0  0
    8.8753   -1.3569   22.3775 N   0  0  0  0  0  0  0  0  0  0  0  0
    7.6729   -1.9807   22.5521 C   0  0  0  0  0  0  0  0  0  0  0  0
    7.4313   -2.9934   23.6536 C   0  0  0  0  0  0  0  0  0  0  0  0
    6.0195   -2.9241   24.2796 C   0  0  0  0  0  0  0  0  0  0  0  0
    6.1401   -3.5820   25.6658 C   0  0  0  0  0  0  0  0  0  0  0  0
    7.6354   -3.5035   26.0539 C   0  0  0  0  0  0  0  0  0  0  0  0
    8.3485   -2.8097   24.8817 C   0  0  0  0  0  0  0  0  0  0  0  0
    6.7335   -1.5901   21.7077 N   0  0  0  0  0  0  0  0  0  0  0  0
    7.3632   -0.6471   20.9567 N   0  0  0  0  0  0  0  0  0  0  0  0
    6.6743    0.0040   19.8962 C   0  0  0  0  0  0  0  0  0  0  0  0
    5.4535    0.6355   20.1512 C   0  0  0  0  0  0  0  0  0  0  0  0
    4.8287    1.3086   19.0977 C   0  0  0  0  0  0  0  0  0  0  0  0
    5.4277    1.3063   17.8329 C   0  0  0  0  0  0  0  0  0  0  0  0
    6.5752    0.6640   17.5698 N   0  0  0  0  0  0  0  0  0  0  0  0
    7.1775    0.0245   18.5811 C   0  0  0  0  0  0  0  0  0  0  0  0
   10.7482    1.6730   23.8199 C   0  0  0  0  0  0  0  0  0  0  0  0
   11.4129    1.1476   24.9376 C   0  0  0  0  0  0  0  0  0  0  0  0
  1  2  2  0
  2  3  1  0
  3  4  2  0
  4  5  1  0
  5  6  1  0
  6  7  1  0
  7  8  1  0
  8  9  2  0
  9 10  1  0
 10 11  1  0
 11 12  1  0
 12 13  1  0
 13 14  1  0
 14 15  1  0
 10 16  2  0
 16 17  1  0
 17 18  1  0
 18 19  2  0
 19 20  1  0
 20 21  2  0
 21 22  1  0
 22 23  2  0
  4 24  1  0
 24 25  2  0
 25  1  1  0
 17  8  1  0
 23 18  1  0
 15 11  1  0
M  END
>  <cnnaffinity>  (470) 
-6.01758

>  <filename>  (470) 
c1ccc(OCCc2nc(C3CCCC3)nn2-c2cccnc2)cc1

>  <enamine_id>  (470) 
PV-006837128272

$$$$

     RDKit          3D

 26 29  0  0  0  0  0  0  0  0999 V2000
    5.7984    7.1008   23.8490 C   0  0  0  0  0  0  0  0  0  0  0  0
    6.4262    5.8582   23.2483 C   0  0  0  0  0  0  0  0  0  0  0  0
    5.7547    5.1285   22.2614 C   0  0  0  0  0  0  0  0  0  0  0  0
    6.3025    3.9782   21.6862 C   0  0  0  0  0  0  0  0  0  0  0  0
    7.5653    3.5247   22.0943 C   0  0  0  0  0  0  0  0  0  0  0  0
    8.0290    2.3847   21.4911 O   0  0  0  0  0  0  0  0  0  0  0  0
    9.3179    1.8665   21.8049 C   0  0  0  0  0  0  0  0  0  0  0  0
    9.5175    0.5840   20.9940 C   0  0  0  0  0  0  0  0  0  0  0  0
    8.5951   -0.5064   21.4174 C   0  0  0  0  0  0  0  0  0  0  0  0
    8.8291   -1.3461   22.4036 N   0  0  0  0  0  0  0  0  0  0  0  0
    7.6519   -2.0119   22.5303 C   0  0  0  0  0  0  0  0  0  0  0  0
    7.4354   -3.0368   23.5942 C   0  0  0  0  0  0  0  0  0  0  0  0
    7.6105   -2.5015   25.0473 C   0  0  0  0  0  0  0  0  0  0  0  0
    8.9639   -3.6763   25.3889 S   0  0  0  0  0  0  0  0  0  0  0  0
    8.5319   -4.1359   23.6766 C   0  0  0  0  0  0  0  0  0  0  0  0
    6.7161   -1.6507   21.6780 N   0  0  0  0  0  0  0  0  0  0  0  0
    7.3344   -0.6891   20.9351 N   0  0  0  0  0  0  0  0  0  0  0  0
    6.6524    0.0042   19.9000 C   0  0  0  0  0  0  0  0  0  0  0  0
    5.4362    0.6427   20.1635 C   0  0  0  0  0  0  0  0  0  0  0  0
    4.8093    1.3072   19.1067 C   0  0  0  0  0  0  0  0  0  0  0  0
    5.3989    1.2943   17.8374 C   0  0  0  0  0  0  0  0  0  0  0  0
    6.5571    0.6696   17.5739 N   0  0  0  0  0  0  0  0  0  0  0  0
    7.1664    0.0528   18.5930 C   0  0  0  0  0  0  0  0  0  0  0  0
    8.2538    4.2504   23.0784 C   0  0  0  0  0  0  0  0  0  0  0  0
    7.7012    5.4062   23.6554 C   0  0  0  0  0  0  0  0  0  0  0  0
    8.4720    6.1565   24.7168 C   0  0  0  0  0  0  0  0  0  0  0  0
  1  2  1  0
  2  3  2  0
  3  4  1  0
  4  5  2  0
  5  6  1  0
  6  7  1  0
  7  8  1  0
  8  9  1  0
  9 10  2  0
 10 11  1  0
 11 12  1  0
 12 13  1  0
 13 14  1  0
 14 15  1  0
 11 16  2  0
 16 17  1  0
 17 18  1  0
 18 19  2  0
 19 20  1  0
 20 21  2  0
 21 22  1  0
 22 23  2  0
  5 24  1  0
 24 25  2  0
 25 26  1  0
 25  2  1  0
 17  9  1  0
 23 18  1  0
 15 12  1  0
M  END
>  <cnnaffinity>  (471) 
-6.01747

>  <filename>  (471) 
Cc1ccc(OCCc2nc(C3CSC3)nn2-c2cccnc2)cc1C

>  <enamine_id>  (471) 
PV-007054385170

$$$$

     RDKit          3D

 23 25  0  0  0  0  0  0  0  0999 V2000
    8.0991   -1.6863   25.6802 C   0  0  0  0  0  0  0  0  0  0  0  0
    6.9613   -2.3896   24.9404 C   0  0  0  0  0  0  0  0  0  0  0  0
    7.3933   -3.0190   23.5925 C   0  0  0  0  0  0  0  0  0  0  0  0
    7.6680   -2.0295   22.5021 C   0  0  0  0  0  0  0  0  0  0  0  0
    6.7308   -1.6387   21.6655 N   0  0  0  0  0  0  0  0  0  0  0  0
    7.3524   -0.6965   20.9145 N   0  0  0  0  0  0  0  0  0  0  0  0
    6.6615   -0.0308   19.8668 C   0  0  0  0  0  0  0  0  0  0  0  0
    5.4588    0.6252   20.1498 C   0  0  0  0  0  0  0  0  0  0  0  0
    4.8293    1.3070   19.1062 C   0  0  0  0  0  0  0  0  0  0  0  0
    5.4105    1.2990   17.8346 C   0  0  0  0  0  0  0  0  0  0  0  0
    6.5380    0.6295   17.5452 N   0  0  0  0  0  0  0  0  0  0  0  0
    7.1431   -0.0241   18.5436 C   0  0  0  0  0  0  0  0  0  0  0  0
    8.6264   -0.5332   21.3743 C   0  0  0  0  0  0  0  0  0  0  0  0
    9.5221    0.5451   20.8611 C   0  0  0  0  0  0  0  0  0  0  0  0
    9.1701    1.9760   21.3430 C   0  0  0  0  0  0  0  0  0  0  0  0
    9.3312    2.0740   22.8434 C   0  0  0  0  0  0  0  0  0  0  0  0
   10.6258    2.1111   23.3850 C   0  0  0  0  0  0  0  0  0  0  0  0
   10.8196    2.0495   24.7645 C   0  0  0  0  0  0  0  0  0  0  0  0
    9.6880    1.9850   25.5740 C   0  0  0  0  0  0  0  0  0  0  0  0
    8.4384    1.9629   25.1007 N   0  0  0  0  0  0  0  0  0  0  0  0
    8.2855    1.9698   23.7808 C   0  0  0  0  0  0  0  0  0  0  0  0
    6.6440    1.7862   23.2458 Cl  0  0  0  0  0  0  0  0  0  0  0  0
    8.8735   -1.4083   22.3346 N   0  0  0  0  0  0  0  0  0  0  0  0
  1  2  1  0
  2  3  1  0
  3  4  1  0
  4  5  2  0
  5  6  1  0
  6  7  1  0
  7  8  2  0
  8  9  1  0
  9 10  2  0
 10 11  1  0
 11 12  2  0
  6 13  1  0
 13 14  1  0
 14 15  1  0
 15 16  1  0
 16 17  2  0
 17 18  1  0
 18 19  2  0
 19 20  1  0
 20 21  2  0
 21 22  1  0
 13 23  2  0
 23  4  1  0
 12  7  1  0
 21 16  1  0
M  END
>  <cnnaffinity>  (472) 
-6.01649

>  <filename>  (472) 
CCCc1nc(CCc2cccnc2Cl)n(-c2cccnc2)n1

>  <enamine_id>  (472) 
PV-006919819925

$$$$

     RDKit          3D

 28 31  0  0  0  0  0  0  0  0999 V2000
    5.8026    7.1038   23.8396 C   0  0  0  0  0  0  0  0  0  0  0  0
    6.4301    5.8595   23.2402 C   0  0  0  0  0  0  0  0  0  0  0  0
    5.7592    5.1305   22.2523 C   0  0  0  0  0  0  0  0  0  0  0  0
    6.3068    3.9797   21.6779 C   0  0  0  0  0  0  0  0  0  0  0  0
    7.5681    3.5247   22.0891 C   0  0  0  0  0  0  0  0  0  0  0  0
    8.0298    2.3840   21.4869 O   0  0  0  0  0  0  0  0  0  0  0  0
    9.3189    1.8685   21.8021 C   0  0  0  0  0  0  0  0  0  0  0  0
    9.5204    0.5881   20.9916 C   0  0  0  0  0  0  0  0  0  0  0  0
    8.5990   -0.4994   21.4116 C   0  0  0  0  0  0  0  0  0  0  0  0
    8.8312   -1.3425   22.3950 N   0  0  0  0  0  0  0  0  0  0  0  0
    7.6473   -2.0056   22.5195 C   0  0  0  0  0  0  0  0  0  0  0  0
    7.4285   -3.0481   23.5778 C   0  0  0  0  0  0  0  0  0  0  0  0
    7.5687   -2.4698   25.0092 C   0  0  0  0  0  0  0  0  0  0  0  0
    7.3661   -3.5671   26.0861 C   0  0  0  0  0  0  0  0  0  0  0  0
    7.3713   -4.8813   25.5552 O   0  0  0  0  0  0  0  0  0  0  0  0
    8.4757   -5.1025   24.7026 C   0  0  0  0  0  0  0  0  0  0  0  0
    8.3736   -4.2695   23.4038 C   0  0  0  0  0  0  0  0  0  0  0  0
    6.7157   -1.6335   21.6663 N   0  0  0  0  0  0  0  0  0  0  0  0
    7.3396   -0.6776   20.9286 N   0  0  0  0  0  0  0  0  0  0  0  0
    6.6540    0.0103   19.8962 C   0  0  0  0  0  0  0  0  0  0  0  0
    5.4357    0.6434   20.1623 C   0  0  0  0  0  0  0  0  0  0  0  0
    4.8082    1.3076   19.1059 C   0  0  0  0  0  0  0  0  0  0  0  0
    5.3980    1.2948   17.8363 C   0  0  0  0  0  0  0  0  0  0  0  0
    6.5557    0.6701   17.5710 N   0  0  0  0  0  0  0  0  0  0  0  0
    7.1663    0.0544   18.5896 C   0  0  0  0  0  0  0  0  0  0  0  0
    8.2566    4.2491   23.0741 C   0  0  0  0  0  0  0  0  0  0  0  0
    7.7039    5.4062   23.6492 C   0  0  0  0  0  0  0  0  0  0  0  0
    8.4734    6.1567   24.7114 C   0  0  0  0  0  0  0  0  0  0  0  0
  1  2  1  0
  2  3  2  0
  3  4  1  0
  4  5  2  0
  5  6  1  0
  6  7  1  0
  7  8  1  0
  8  9  1  0
  9 10  2  0
 10 11  1  0
 11 12  1  0
 12 13  1  0
 13 14  1  0
 14 15  1  0
 15 16  1  0
 16 17  1  0
 11 18  2  0
 18 19  1  0
 19 20  1  0
 20 21  2  0
 21 22  1  0
 22 23  2  0
 23 24  1  0
 24 25  2  0
  5 26  1  0
 26 27  2  0
 27 28  1  0
 27  2  1  0
 19  9  1  0
 25 20  1  0
 17 12  1  0
M  END
>  <cnnaffinity>  (473) 
-6.01646

>  <filename>  (473) 
Cc1ccc(OCCc2nc(C3CCOCC3)nn2-c2cccnc2)cc1C

>  <enamine_id>  (473) 
PV-006796794760

$$$$

     RDKit          3D

 22 25  0  0  0  0  0  0  0  0999 V2000
   11.4475    2.0795   21.7933 C   0  0  0  0  0  0  0  0  0  0  0  0
    9.9660    2.1249   21.9661 C   0  0  0  0  0  0  0  0  0  0  0  0
    9.2886    1.4639   22.8650 N   0  0  0  0  0  0  0  0  0  0  0  0
    7.9636    1.7334   22.6260 C   0  0  0  0  0  0  0  0  0  0  0  0
    6.9122    0.9274   23.3249 C   0  0  0  0  0  0  0  0  0  0  0  0
    7.0000   -0.4721   22.7981 C   0  0  0  0  0  0  0  0  0  0  0  0
    7.5802   -1.4489   23.4621 N   0  0  0  0  0  0  0  0  0  0  0  0
    7.9046   -2.3396   22.4874 C   0  0  0  0  0  0  0  0  0  0  0  0
    8.8883   -3.4334   22.7163 C   0  0  0  0  0  0  0  0  0  0  0  0
    8.7658   -4.2853   24.0072 C   0  0  0  0  0  0  0  0  0  0  0  0
   10.2014   -3.8786   24.4120 C   0  0  0  0  0  0  0  0  0  0  0  0
   10.2979   -2.9359   23.1934 C   0  0  0  0  0  0  0  0  0  0  0  0
    7.4975   -2.0133   21.2804 N   0  0  0  0  0  0  0  0  0  0  0  0
    6.8714   -0.8188   21.4800 N   0  0  0  0  0  0  0  0  0  0  0  0
    6.4115   -0.0764   20.3634 C   0  0  0  0  0  0  0  0  0  0  0  0
    5.2553    0.7125   20.4155 C   0  0  0  0  0  0  0  0  0  0  0  0
    4.8671    1.3762   19.2487 C   0  0  0  0  0  0  0  0  0  0  0  0
    5.6435    1.2460   18.0934 C   0  0  0  0  0  0  0  0  0  0  0  0
    6.7756    0.5211   18.0508 N   0  0  0  0  0  0  0  0  0  0  0  0
    7.1462   -0.1196   19.1620 C   0  0  0  0  0  0  0  0  0  0  0  0
    7.8383    2.5798   21.5681 C   0  0  0  0  0  0  0  0  0  0  0  0
    9.1290    2.8002   21.1340 N   0  0  0  0  0  0  0  0  0  0  0  0
  1  2  1  0
  2  3  2  0
  3  4  1  0
  4  5  1  0
  5  6  1  0
  6  7  2  0
  7  8  1  0
  8  9  1  0
  9 10  1  0
 10 11  1  0
 11 12  1  0
  8 13  2  0
 13 14  1  0
 14 15  1  0
 15 16  2  0
 16 17  1  0
 17 18  2  0
 18 19  1  0
 19 20  2  0
  4 21  2  0
 21 22  1  0
 22  2  1  0
 14  6  1  0
 20 15  1  0
 12  9  1  0
M  END
>  <cnnaffinity>  (474) 
-6.01558

>  <filename>  (474) 
Cc1nc(Cc2nc(C3CCC3)nn2-c2cccnc2)c[nH]1

>  <enamine_id>  (474) 
PV-007033068520

$$$$

     RDKit          3D

 23 25  0  0  0  0  0  0  0  0999 V2000
    7.4120    4.5574   22.0338 C   0  0  0  0  0  0  0  0  0  0  0  0
    8.4640    3.7776   22.2890 C   0  0  0  0  0  0  0  0  0  0  0  0
    9.6604    4.3149   23.0456 C   0  0  0  0  0  0  0  0  0  0  0  0
    8.4248    2.3243   21.7939 C   0  0  1  0  0  0  0  0  0  0  0  0
    9.6745    1.6694   21.7810 O   0  0  0  0  0  0  0  0  0  0  0  0
    7.4250    1.4846   22.6209 C   0  0  0  0  0  0  0  0  0  0  0  0
    7.4641    0.0542   22.2318 C   0  0  0  0  0  0  0  0  0  0  0  0
    8.0311   -0.8914   22.9558 N   0  0  0  0  0  0  0  0  0  0  0  0
    8.0697   -1.9520   22.1044 C   0  0  0  0  0  0  0  0  0  0  0  0
    8.7231   -3.2698   22.4342 C   0  0  1  0  0  0  0  0  0  0  0  0
   10.0188   -3.0449   23.2687 C   0  0  0  0  0  0  0  0  0  0  0  0
    9.8314   -3.2372   24.7566 C   0  0  0  0  0  0  0  0  0  0  0  0
    8.6379   -3.3772   25.3375 C   0  0  0  0  0  0  0  0  0  0  0  0
    7.4017   -3.7549   24.5535 C   0  0  0  0  0  0  0  0  0  0  0  0
    7.7670   -4.2675   23.1489 C   0  0  0  0  0  0  0  0  0  0  0  0
    7.5614   -1.7212   20.9121 N   0  0  0  0  0  0  0  0  0  0  0  0
    7.1501   -0.4256   20.9965 N   0  0  0  0  0  0  0  0  0  0  0  0
    6.5166    0.1933   19.8855 C   0  0  0  0  0  0  0  0  0  0  0  0
    5.3330    0.9269   20.0295 C   0  0  0  0  0  0  0  0  0  0  0  0
    4.7845    1.5041   18.8798 C   0  0  0  0  0  0  0  0  0  0  0  0
    5.4297    1.3332   17.6532 C   0  0  0  0  0  0  0  0  0  0  0  0
    6.5592    0.6149   17.5094 N   0  0  0  0  0  0  0  0  0  0  0  0
    7.0793    0.0496   18.6029 C   0  0  0  0  0  0  0  0  0  0  0  0
  1  2  2  3
  2  3  1  0
  2  4  1  0
  4  5  1  1
  4  6  1  0
  6  7  1  0
  7  8  2  0
  8  9  1  0
 10  9  1  1
 10 11  1  0
 11 12  1  0
 12 13  2  0
 13 14  1  0
 14 15  1  0
  9 16  2  0
 16 17  1  0
 17 18  1  0
 18 19  2  0
 19 20  1  0
 20 21  2  0
 21 22  1  0
 22 23  2  0
 17  7  1  0
 23 18  1  0
 15 10  1  0
M  END
>  <cnnaffinity>  (475) 
-6.01509

>  <filename>  (475) 
C=C(C)[C@@H](O)Cc1nc(C2CC=CCC2)nn1-c1cccnc1

>  <enamine_id>  (475) 
PV-007062454866

$$$$

     RDKit          3D

 22 24  0  0  0  0  0  0  0  0999 V2000
    8.4796   -4.9894   22.6720 C   0  0  0  0  0  0  0  0  0  0  0  0
    6.8119   -4.6425   23.2813 S   0  0  0  0  0  0  0  0  0  0  0  0
    7.0550   -2.8960   23.7392 C   0  0  0  0  0  0  0  0  0  0  0  0
    7.3829   -1.9837   22.5950 C   0  0  0  0  0  0  0  0  0  0  0  0
    6.5078   -1.5952   21.6980 N   0  0  0  0  0  0  0  0  0  0  0  0
    7.2336   -0.7739   20.8918 N   0  0  0  0  0  0  0  0  0  0  0  0
    6.5704   -0.0611   19.8528 C   0  0  0  0  0  0  0  0  0  0  0  0
    5.3751    0.6228   20.1140 C   0  0  0  0  0  0  0  0  0  0  0  0
    4.7903    1.3353   19.0656 C   0  0  0  0  0  0  0  0  0  0  0  0
    5.3944    1.3262   17.8025 C   0  0  0  0  0  0  0  0  0  0  0  0
    6.5270    0.6548   17.5421 N   0  0  0  0  0  0  0  0  0  0  0  0
    7.0893   -0.0207   18.5497 C   0  0  0  0  0  0  0  0  0  0  0  0
    8.5007   -0.6603   21.4028 C   0  0  0  0  0  0  0  0  0  0  0  0
    9.6225    0.1611   20.8462 C   0  0  0  0  0  0  0  0  0  0  0  0
   10.3527    0.9954   21.8896 C   0  0  0  0  0  0  0  0  0  0  0  0
   11.6492    0.6448   22.3022 C   0  0  0  0  0  0  0  0  0  0  0  0
   12.2864    1.3192   23.3506 C   0  0  0  0  0  0  0  0  0  0  0  0
   11.6327    2.3738   23.9933 C   0  0  0  0  0  0  0  0  0  0  0  0
   10.3791    2.8012   23.5470 C   0  0  0  0  0  0  0  0  0  0  0  0
    9.7543    2.1151   22.4981 C   0  0  0  0  0  0  0  0  0  0  0  0
    8.1933    2.6911   21.9604 Cl  0  0  0  0  0  0  0  0  0  0  0  0
    8.6220   -1.4430   22.4574 N   0  0  0  0  0  0  0  0  0  0  0  0
  1  2  1  0
  2  3  1  0
  3  4  1  0
  4  5  2  0
  5  6  1  0
  6  7  1  0
  7  8  2  0
  8  9  1  0
  9 10  2  0
 10 11  1  0
 11 12  2  0
  6 13  1  0
 13 14  1  0
 14 15  1  0
 15 16  2  0
 16 17  1  0
 17 18  2  0
 18 19  1  0
 19 20  2  0
 20 21  1  0
 13 22  2  0
 22  4  1  0
 12  7  1  0
 20 15  1  0
M  END
>  <cnnaffinity>  (476) 
-6.01458

>  <filename>  (476) 
CSCc1nc(Cc2ccccc2Cl)n(-c2cccnc2)n1

>  <enamine_id>  (476) 
PV-007069913558

$$$$

     RDKit          3D

 27 30  0  0  0  0  0  0  0  0999 V2000
    7.3892    6.3182   23.7770 F   0  0  0  0  0  0  0  0  0  0  0  0
    7.7733    5.1193   24.2387 C   0  0  0  0  0  0  0  0  0  0  0  0
    7.7358    4.8981   25.6087 C   0  0  0  0  0  0  0  0  0  0  0  0
    8.1425    3.6412   26.0662 C   0  0  0  0  0  0  0  0  0  0  0  0
    8.5659    2.6520   25.1774 C   0  0  0  0  0  0  0  0  0  0  0  0
    8.5899    2.9130   23.7912 C   0  0  0  0  0  0  0  0  0  0  0  0
    9.0242    1.8921   23.0064 O   0  0  0  0  0  0  0  0  0  0  0  0
    9.0444    2.0068   21.5877 C   0  0  0  0  0  0  0  0  0  0  0  0
    9.4966    0.6565   21.0260 C   0  0  0  0  0  0  0  0  0  0  0  0
    8.6112   -0.4572   21.4499 C   0  0  0  0  0  0  0  0  0  0  0  0
    8.8431   -1.2953   22.4337 N   0  0  0  0  0  0  0  0  0  0  0  0
    7.6598   -1.9575   22.5592 C   0  0  0  0  0  0  0  0  0  0  0  0
    7.4219   -2.9286   23.6800 C   0  0  0  0  0  0  0  0  0  0  0  0
    8.5279   -4.0077   23.7604 C   0  0  0  0  0  0  0  0  0  0  0  0
    8.3272   -4.8889   24.9949 C   0  0  0  0  0  0  0  0  0  0  0  0
    8.2713   -4.1220   26.1853 O   0  0  0  0  0  0  0  0  0  0  0  0
    7.1871   -3.2100   26.1873 C   0  0  0  0  0  0  0  0  0  0  0  0
    7.2957   -2.1976   25.0460 C   0  0  0  0  0  0  0  0  0  0  0  0
    6.7352   -1.6105   21.6898 N   0  0  0  0  0  0  0  0  0  0  0  0
    7.3579   -0.6579   20.9430 N   0  0  0  0  0  0  0  0  0  0  0  0
    6.6592    0.0137   19.9010 C   0  0  0  0  0  0  0  0  0  0  0  0
    5.4385    0.6457   20.1648 C   0  0  0  0  0  0  0  0  0  0  0  0
    4.8125    1.3112   19.1077 C   0  0  0  0  0  0  0  0  0  0  0  0
    5.4000    1.2971   17.8361 C   0  0  0  0  0  0  0  0  0  0  0  0
    6.5572    0.6710   17.5737 N   0  0  0  0  0  0  0  0  0  0  0  0
    7.1675    0.0515   18.5901 C   0  0  0  0  0  0  0  0  0  0  0  0
    8.1894    4.1650   23.3091 C   0  0  0  0  0  0  0  0  0  0  0  0
  1  2  1  0
  2  3  2  0
  3  4  1  0
  4  5  2  0
  5  6  1  0
  6  7  1  0
  7  8  1  0
  8  9  1  0
  9 10  1  0
 10 11  2  0
 11 12  1  0
 12 13  1  0
 13 14  1  0
 14 15  1  0
 15 16  1  0
 16 17  1  0
 17 18  1  0
 12 19  2  0
 19 20  1  0
 20 21  1  0
 21 22  2  0
 22 23  1  0
 23 24  2  0
 24 25  1  0
 25 26  2  0
  6 27  2  0
 27  2  1  0
 20 10  1  0
 26 21  1  0
 18 13  1  0
M  END
>  <cnnaffinity>  (477) 
-6.01273

>  <filename>  (477) 
Fc1cccc(OCCc2nc(C3CCOCC3)nn2-c2cccnc2)c1

>  <enamine_id>  (477) 
PV-006943162906

$$$$

     RDKit          3D

 24 27  0  0  0  0  0  0  0  0999 V2000
    6.4510   -0.0526   25.3732 Br  0  0  0  0  0  0  0  0  0  0  0  0
    6.5970    1.4520   24.1888 C   0  0  0  0  0  0  0  0  0  0  0  0
    6.4710    2.7426   24.7061 C   0  0  0  0  0  0  0  0  0  0  0  0
    6.6224    3.8260   23.8399 C   0  0  0  0  0  0  0  0  0  0  0  0
    6.8735    3.5937   22.4861 C   0  0  0  0  0  0  0  0  0  0  0  0
    6.9764    2.3489   21.9872 N   0  0  0  0  0  0  0  0  0  0  0  0
    6.8607    1.2724   22.8111 C   0  0  0  0  0  0  0  0  0  0  0  0
    7.1604   -0.0931   22.2820 C   0  0  0  0  0  0  0  0  0  0  0  0
    7.5382   -1.1341   22.9933 N   0  0  0  0  0  0  0  0  0  0  0  0
    7.9416   -2.0646   22.0457 C   0  0  0  0  0  0  0  0  0  0  0  0
    8.7324   -3.3216   22.3589 C   0  0  0  0  0  0  0  0  0  0  0  0
    9.9372   -2.9994   23.2885 C   0  0  0  0  0  0  0  0  0  0  0  0
    9.8972   -3.8165   24.5937 C   0  0  0  0  0  0  0  0  0  0  0  0
    8.5924   -3.7070   25.1897 O   0  0  0  0  0  0  0  0  0  0  0  0
    7.5254   -4.2462   24.3933 C   0  0  0  0  0  0  0  0  0  0  0  0
    7.9341   -4.5097   22.9417 C   0  0  0  0  0  0  0  0  0  0  0  0
    7.7676   -1.6754   20.8045 N   0  0  0  0  0  0  0  0  0  0  0  0
    7.2207   -0.4498   20.9326 N   0  0  0  0  0  0  0  0  0  0  0  0
    6.6376    0.2213   19.8487 C   0  0  0  0  0  0  0  0  0  0  0  0
    5.5069    1.0145   20.0460 C   0  0  0  0  0  0  0  0  0  0  0  0
    4.8809    1.5731   18.9295 C   0  0  0  0  0  0  0  0  0  0  0  0
    5.4035    1.3439   17.6514 C   0  0  0  0  0  0  0  0  0  0  0  0
    6.4933    0.5789   17.4487 N   0  0  0  0  0  0  0  0  0  0  0  0
    7.0945    0.0278   18.5270 C   0  0  0  0  0  0  0  0  0  0  0  0
  1  2  1  0
  2  3  2  0
  3  4  1  0
  4  5  2  0
  5  6  1  0
  6  7  2  0
  7  8  1  0
  8  9  2  0
  9 10  1  0
 10 11  1  0
 11 12  1  0
 12 13  1  0
 13 14  1  0
 14 15  1  0
 15 16  1  0
 10 17  2  0
 17 18  1  0
 18 19  1  0
 19 20  2  0
 20 21  1  0
 21 22  2  0
 22 23  1  0
 23 24  2  0
  7  2  1  0
 18  8  1  0
 24 19  1  0
 16 11  1  0
M  END
>  <cnnaffinity>  (478) 
-6.01249

>  <filename>  (478) 
Brc1cccnc1-c1nc(C2CCOCC2)nn1-c1cccnc1

>  <enamine_id>  (478) 
PV-006768091005

$$$$

     RDKit          3D

 22 25  0  0  0  0  0  0  0  0999 V2000
    4.8229    1.2829   19.0961 C   0  0  0  0  0  0  0  0  0  0  0  0
    5.4240    1.3194   17.8307 C   0  0  0  0  0  0  0  0  0  0  0  0
    6.5714    0.6832   17.5525 N   0  0  0  0  0  0  0  0  0  0  0  0
    7.1719    0.0141   18.5444 C   0  0  0  0  0  0  0  0  0  0  0  0
    6.6627   -0.0514   19.8521 C   0  0  0  0  0  0  0  0  0  0  0  0
    7.3572   -0.7133   20.9005 N   0  0  0  0  0  0  0  0  0  0  0  0
    6.6998   -1.6364   21.6502 N   0  0  0  0  0  0  0  0  0  0  0  0
    7.6170   -2.0193   22.5209 C   0  0  0  0  0  0  0  0  0  0  0  0
    7.3718   -2.9887   23.6258 C   0  0  0  0  0  0  0  0  0  0  0  0
    6.2493   -2.6044   24.6464 C   0  0  0  0  0  0  0  0  0  0  0  0
    5.4306   -3.8352   24.1955 C   0  0  0  0  0  0  0  0  0  0  0  0
    6.5768   -4.2752   23.2547 C   0  0  0  0  0  0  0  0  0  0  0  0
    8.8133   -1.3974   22.3986 N   0  0  0  0  0  0  0  0  0  0  0  0
    8.6155   -0.5404   21.4149 C   0  0  0  0  0  0  0  0  0  0  0  0
    9.5789    0.5520   21.0913 C   0  0  0  0  0  0  0  0  0  0  0  0
    9.6618    1.6656   22.1764 C   0  0  0  0  0  0  0  0  0  0  0  0
    8.3406    2.3376   22.4492 C   0  0  0  0  0  0  0  0  0  0  0  0
    7.4014    1.9959   23.3793 C   0  0  0  0  0  0  0  0  0  0  0  0
    6.0022    2.9783   23.1975 S   0  0  0  0  0  0  0  0  0  0  0  0
    6.7622    3.7786   21.8666 C   0  0  0  0  0  0  0  0  0  0  0  0
    7.9563    3.3435   21.6014 N   0  0  0  0  0  0  0  0  0  0  0  0
    5.4344    0.5567   20.1195 C   0  0  0  0  0  0  0  0  0  0  0  0
  1  2  2  0
  2  3  1  0
  3  4  2  0
  4  5  1  0
  5  6  1  0
  6  7  1  0
  7  8  2  0
  8  9  1  0
  9 10  1  0
 10 11  1  0
 11 12  1  0
  8 13  1  0
 13 14  2  0
 14 15  1  0
 15 16  1  0
 16 17  1  0
 17 18  2  0
 18 19  1  0
 19 20  1  0
 20 21  2  0
  5 22  2  0
 22  1  1  0
 14  6  1  0
 21 17  1  0
 12  9  1  0
M  END
>  <cnnaffinity>  (479) 
-6.01187

>  <filename>  (479) 
c1cncc(-n2nc(C3CCC3)nc2CCc2cscn2)c1

>  <enamine_id>  (479) 
PV-006815455143

$$$$

     RDKit          3D

 26 28  0  0  0  0  0  0  0  0999 V2000
    6.4529   -1.6509   27.0744 C   0  0  0  0  0  0  0  0  0  0  0  0
    7.2261   -2.6263   26.1799 C   0  0  0  0  0  0  0  0  0  0  0  0
    8.7226   -2.5903   26.4920 C   0  0  0  0  0  0  0  0  0  0  0  0
    6.6623   -4.0455   26.3031 C   0  0  0  0  0  0  0  0  0  0  0  0
    6.9966   -2.1011   24.8663 O   0  0  0  0  0  0  0  0  0  0  0  0
    7.3880   -2.8508   23.7204 C   0  0  0  0  0  0  0  0  0  0  0  0
    7.6479   -1.9322   22.5522 C   0  0  0  0  0  0  0  0  0  0  0  0
    6.7075   -1.5493   21.7115 N   0  0  0  0  0  0  0  0  0  0  0  0
    7.3491   -0.6532   20.9254 N   0  0  0  0  0  0  0  0  0  0  0  0
    6.6601   -0.0014   19.8637 C   0  0  0  0  0  0  0  0  0  0  0  0
    5.4481    0.6391   20.1350 C   0  0  0  0  0  0  0  0  0  0  0  0
    4.8067    1.3118   19.0931 C   0  0  0  0  0  0  0  0  0  0  0  0
    5.3964    1.2995   17.8247 C   0  0  0  0  0  0  0  0  0  0  0  0
    6.5425    0.6547   17.5491 N   0  0  0  0  0  0  0  0  0  0  0  0
    7.1608    0.0213   18.5527 C   0  0  0  0  0  0  0  0  0  0  0  0
    8.6385   -0.5177   21.3619 C   0  0  0  0  0  0  0  0  0  0  0  0
    9.5349    0.6054   20.9423 C   0  0  0  0  0  0  0  0  0  0  0  0
    9.1344    1.9757   21.5599 C   0  0  0  0  0  0  0  0  0  0  0  0
    9.0923    1.9314   23.0754 C   0  0  0  0  0  0  0  0  0  0  0  0
   10.2783    1.8825   23.8303 C   0  0  0  0  0  0  0  0  0  0  0  0
   10.2651    1.6961   25.2170 C   0  0  0  0  0  0  0  0  0  0  0  0
    9.0444    1.5375   25.8784 C   0  0  0  0  0  0  0  0  0  0  0  0
    7.8481    1.5785   25.1574 C   0  0  0  0  0  0  0  0  0  0  0  0
    7.8911    1.7792   23.7802 C   0  0  0  0  0  0  0  0  0  0  0  0
    6.7145    1.8083   23.1144 F   0  0  0  0  0  0  0  0  0  0  0  0
    8.8735   -1.3765   22.3309 N   0  0  0  0  0  0  0  0  0  0  0  0
  1  2  1  0
  2  3  1  0
  2  4  1  0
  2  5  1  0
  5  6  1  0
  6  7  1  0
  7  8  2  0
  8  9  1  0
  9 10  1  0
 10 11  2  0
 11 12  1  0
 12 13  2  0
 13 14  1  0
 14 15  2  0
  9 16  1  0
 16 17  1  0
 17 18  1  0
 18 19  1  0
 19 20  2  0
 20 21  1  0
 21 22  2  0
 22 23  1  0
 23 24  2  0
 24 25  1  0
 16 26  2  0
 26  7  1  0
 15 10  1  0
 24 19  1  0
M  END
>  <cnnaffinity>  (480) 
-6.00942

>  <filename>  (480) 
CC(C)(C)OCc1nc(CCc2ccccc2F)n(-c2cccnc2)n1

>  <enamine_id>  (480) 
PV-006778730257

$$$$

     RDKit          3D

 24 26  0  0  0  0  0  0  0  0999 V2000
    5.9501   -1.2445   25.0706 C   0  0  0  0  0  0  0  0  0  0  0  0
    7.2125   -2.0953   25.0669 C   0  0  0  0  0  0  0  0  0  0  0  0
    7.4153   -2.8709   23.7449 C   0  0  2  0  0  0  0  0  0  0  0  0
    8.5486   -3.8971   23.8701 C   0  0  0  0  0  0  0  0  0  0  0  0
    7.6484   -1.9227   22.5983 C   0  0  0  0  0  0  0  0  0  0  0  0
    6.7254   -1.5950   21.7174 N   0  0  0  0  0  0  0  0  0  0  0  0
    7.3568   -0.6727   20.9385 N   0  0  0  0  0  0  0  0  0  0  0  0
    6.6556    0.0029   19.8996 C   0  0  0  0  0  0  0  0  0  0  0  0
    5.4396    0.6441   20.1649 C   0  0  0  0  0  0  0  0  0  0  0  0
    4.8108    1.3112   19.1092 C   0  0  0  0  0  0  0  0  0  0  0  0
    5.4015    1.2949   17.8391 C   0  0  0  0  0  0  0  0  0  0  0  0
    6.5636    0.6757   17.5773 N   0  0  0  0  0  0  0  0  0  0  0  0
    7.1712    0.0543   18.5942 C   0  0  0  0  0  0  0  0  0  0  0  0
    8.6220   -0.4868   21.4121 C   0  0  0  0  0  0  0  0  0  0  0  0
    9.5100    0.6337   20.9595 C   0  0  0  0  0  0  0  0  0  0  0  0
    9.0245    2.0230   21.4644 C   0  0  0  0  0  0  0  0  0  0  0  0
    8.8506    2.0645   22.9648 C   0  0  0  0  0  0  0  0  0  0  0  0
    7.6418    2.0018   23.4509 N   0  0  0  0  0  0  0  0  0  0  0  0
    7.5380    1.9370   24.8202 N   0  0  0  0  0  0  0  0  0  0  0  0
    8.5455    1.9394   25.7764 C   0  0  0  0  0  0  0  0  0  0  0  0
    8.2842    1.9166   26.9684 O   0  0  0  0  0  0  0  0  0  0  0  0
    9.8765    1.9955   25.1706 C   0  0  0  0  0  0  0  0  0  0  0  0
   10.0281    2.0474   23.8222 C   0  0  0  0  0  0  0  0  0  0  0  0
    8.8392   -1.2817   22.4408 N   0  0  0  0  0  0  0  0  0  0  0  0
  1  2  1  0
  2  3  1  0
  3  4  1  1
  3  5  1  0
  5  6  2  0
  6  7  1  0
  7  8  1  0
  8  9  2  0
  9 10  1  0
 10 11  2  0
 11 12  1  0
 12 13  2  0
  7 14  1  0
 14 15  1  0
 15 16  1  0
 16 17  1  0
 17 18  2  0
 18 19  1  0
 19 20  1  0
 20 21  2  0
 20 22  1  0
 22 23  2  0
 14 24  2  0
 24  5  1  0
 13  8  1  0
 23 17  1  0
M  END
>  <cnnaffinity>  (481) 
-6.00762

>  <filename>  (481) 
CCC(C)c1nc(CCc2ccc(=O)[nH]n2)n(-c2cccnc2)n1

>  <enamine_id>  (481) 
PV-007088535250

$$$$

     RDKit          3D

 22 25  0  0  0  0  0  0  0  0999 V2000
    4.8140    1.3080   19.1111 C   0  0  0  0  0  0  0  0  0  0  0  0
    5.4016    1.2954   17.8385 C   0  0  0  0  0  0  0  0  0  0  0  0
    6.5608    0.6730   17.5762 N   0  0  0  0  0  0  0  0  0  0  0  0
    7.1675    0.0518   18.5932 C   0  0  0  0  0  0  0  0  0  0  0  0
    6.6586    0.0009   19.9022 C   0  0  0  0  0  0  0  0  0  0  0  0
    7.3727   -0.6723   20.9383 N   0  0  0  0  0  0  0  0  0  0  0  0
    6.7497   -1.5891   21.7184 N   0  0  0  0  0  0  0  0  0  0  0  0
    7.6897   -1.9469   22.5755 C   0  0  0  0  0  0  0  0  0  0  0  0
    7.4259   -2.8831   23.7040 C   0  0  0  0  0  0  0  0  0  0  0  0
    6.5397   -4.1152   23.3657 C   0  0  0  0  0  0  0  0  0  0  0  0
    5.4629   -3.6025   24.3487 C   0  0  0  0  0  0  0  0  0  0  0  0
    6.3524   -2.3991   24.7315 C   0  0  0  0  0  0  0  0  0  0  0  0
    8.8899   -1.3402   22.3944 N   0  0  0  0  0  0  0  0  0  0  0  0
    8.6506   -0.5164   21.3906 C   0  0  0  0  0  0  0  0  0  0  0  0
    9.5340    0.6013   20.9335 C   0  0  0  0  0  0  0  0  0  0  0  0
    9.0622    2.0091   21.4106 C   0  0  0  0  0  0  0  0  0  0  0  0
    8.9121    2.1081   22.9039 C   0  0  0  0  0  0  0  0  0  0  0  0
    7.7947    1.9343   23.5700 N   0  0  0  0  0  0  0  0  0  0  0  0
    8.1509    1.9140   24.8945 C   0  0  0  0  0  0  0  0  0  0  0  0
    9.4962    2.0981   25.0470 C   0  0  0  0  0  0  0  0  0  0  0  0
    9.9694    2.2179   23.7561 N   0  0  0  0  0  0  0  0  0  0  0  0
    5.4408    0.6389   20.1700 C   0  0  0  0  0  0  0  0  0  0  0  0
  1  2  2  0
  2  3  1  0
  3  4  2  0
  4  5  1  0
  5  6  1  0
  6  7  1  0
  7  8  2  0
  8  9  1  0
  9 10  1  0
 10 11  1  0
 11 12  1  0
  8 13  1  0
 13 14  2  0
 14 15  1  0
 15 16  1  0
 16 17  1  0
 17 18  2  0
 18 19  1  0
 19 20  2  0
 20 21  1  0
  5 22  2  0
 22  1  1  0
 14  6  1  0
 21 17  1  0
 12  9  1  0
M  END
>  <cnnaffinity>  (482) 
-6.00748

>  <filename>  (482) 
c1cncc(-n2nc(C3CCC3)nc2CCc2ncc[nH]2)c1

>  <enamine_id>  (482) 
PV-006894128568

$$$$

     RDKit          3D

 22 25  0  0  0  0  0  0  0  0999 V2000
    4.7820    1.3751   18.9566 C   0  0  0  0  0  0  0  0  0  0  0  0
    5.4364    1.3163   17.7239 C   0  0  0  0  0  0  0  0  0  0  0  0
    6.5709    0.6201   17.5264 N   0  0  0  0  0  0  0  0  0  0  0  0
    7.1054   -0.0202   18.5726 C   0  0  0  0  0  0  0  0  0  0  0  0
    6.5584    0.0465   19.8699 C   0  0  0  0  0  0  0  0  0  0  0  0
    7.2050   -0.5721   20.9740 N   0  0  0  0  0  0  0  0  0  0  0  0
    7.7639   -1.8064   20.8561 N   0  0  0  0  0  0  0  0  0  0  0  0
    8.1312   -2.0870   22.0936 C   0  0  0  0  0  0  0  0  0  0  0  0
    8.9533   -3.2787   22.4449 C   0  0  0  0  0  0  0  0  0  0  0  0
   10.2993   -2.9612   23.1901 C   0  0  0  0  0  0  0  0  0  0  0  0
    9.9270   -3.9787   24.2925 C   0  0  0  0  0  0  0  0  0  0  0  0
    8.5357   -4.1925   23.6432 C   0  0  0  0  0  0  0  0  0  0  0  0
    7.8447   -1.1255   23.0019 N   0  0  0  0  0  0  0  0  0  0  0  0
    7.3383   -0.1522   22.2723 C   0  0  0  0  0  0  0  0  0  0  0  0
    7.1396    1.2275   22.8123 C   0  0  0  0  0  0  0  0  0  0  0  0
    8.2751    1.6735   23.7807 C   0  0  0  0  0  0  0  0  0  0  0  0
    8.0424    3.0498   24.3093 C   0  0  0  0  0  0  0  0  0  0  0  0
    8.3965    4.2505   23.7614 C   0  0  0  0  0  0  0  0  0  0  0  0
    7.7930    5.2054   24.5519 N   0  0  0  0  0  0  0  0  0  0  0  0
    7.1079    4.5440   25.5218 C   0  0  0  0  0  0  0  0  0  0  0  0
    7.2406    3.2510   25.4086 N   0  0  0  0  0  0  0  0  0  0  0  0
    5.3496    0.7279   20.0552 C   0  0  0  0  0  0  0  0  0  0  0  0
  1  2  2  0
  2  3  1  0
  3  4  2  0
  4  5  1  0
  5  6  1  0
  6  7  1  0
  7  8  2  0
  8  9  1  0
  9 10  1  0
 10 11  1  0
 11 12  1  0
  8 13  1  0
 13 14  2  0
 14 15  1  0
 15 16  1  0
 16 17  1  0
 17 18  2  0
 18 19  1  0
 19 20  1  0
 20 21  2  0
  5 22  2  0
 22  1  1  0
 14  6  1  0
 21 17  1  0
 12  9  1  0
M  END
>  <cnnaffinity>  (483) 
-6.00711

>  <filename>  (483) 
c1cncc(-n2nc(C3CCC3)nc2CCc2c[nH]cn2)c1

>  <enamine_id>  (483) 
PV-006725241928

$$$$

     RDKit          3D

 23 26  0  0  0  0  0  0  0  0999 V2000
   10.9611    0.4330   21.4032 C   0  0  0  0  0  0  0  0  0  0  0  0
    9.5002    0.6777   21.0199 C   0  0  2  0  0  0  0  0  0  0  0  0
    8.9557    2.0431   21.5578 C   0  0  0  0  0  0  0  0  0  0  0  0
    8.7577    2.0687   23.0438 C   0  0  0  0  0  0  0  0  0  0  0  0
    7.6966    1.6614   23.8164 C   0  0  0  0  0  0  0  0  0  0  0  0
    7.9995    1.7094   25.1531 N   0  0  0  0  0  0  0  0  0  0  0  0
    9.2338    2.1381   25.2070 C   0  0  0  0  0  0  0  0  0  0  0  0
    9.7403    2.3789   23.9643 N   0  0  0  0  0  0  0  0  0  0  0  0
    8.6301   -0.4824   21.4392 C   0  0  0  0  0  0  0  0  0  0  0  0
    8.8413   -1.3427   22.4246 N   0  0  0  0  0  0  0  0  0  0  0  0
    7.6523   -1.9751   22.5476 C   0  0  0  0  0  0  0  0  0  0  0  0
    7.3857   -2.9315   23.6669 C   0  0  0  0  0  0  0  0  0  0  0  0
    6.3347   -2.4181   24.7059 C   0  0  0  0  0  0  0  0  0  0  0  0
    5.2132   -3.8127   24.3409 S   0  0  0  0  0  0  0  0  0  0  0  0
    6.6179   -4.2135   23.2464 C   0  0  0  0  0  0  0  0  0  0  0  0
    6.7345   -1.6136   21.6735 N   0  0  0  0  0  0  0  0  0  0  0  0
    7.3680   -0.6627   20.9395 N   0  0  0  0  0  0  0  0  0  0  0  0
    6.6655    0.0074   19.9016 C   0  0  0  0  0  0  0  0  0  0  0  0
    5.4449    0.6386   20.1607 C   0  0  0  0  0  0  0  0  0  0  0  0
    4.8118    1.3075   19.1092 C   0  0  0  0  0  0  0  0  0  0  0  0
    5.3983    1.2939   17.8389 C   0  0  0  0  0  0  0  0  0  0  0  0
    6.5546    0.6660   17.5783 N   0  0  0  0  0  0  0  0  0  0  0  0
    7.1693    0.0457   18.5907 C   0  0  0  0  0  0  0  0  0  0  0  0
  2  1  1  1
  2  3  1  0
  3  4  1  0
  4  5  2  0
  5  6  1  0
  6  7  2  0
  7  8  1  0
  2  9  1  0
  9 10  2  0
 10 11  1  0
 11 12  1  0
 12 13  1  0
 13 14  1  0
 14 15  1  0
 11 16  2  0
 16 17  1  0
 17 18  1  0
 18 19  2  0
 19 20  1  0
 20 21  2  0
 21 22  1  0
 22 23  2  0
  8  4  1  0
 17  9  1  0
 23 18  1  0
 15 12  1  0
M  END
>  <cnnaffinity>  (484) 
-6.00684

>  <filename>  (484) 
CC(Cc1cnc[nH]1)c1nc(C2CSC2)nn1-c1cccnc1

>  <enamine_id>  (484) 
PV-007042346606

$$$$

     RDKit          3D

 25 28  0  0  0  0  0  0  0  0999 V2000
    7.7823    2.8521   21.9108 C   0  0  0  0  0  0  0  0  0  0  0  0
    9.1278    2.4717   22.4463 C   0  0  0  0  0  0  0  0  0  0  0  0
    9.6521    3.0604   23.5205 N   0  0  0  0  0  0  0  0  0  0  0  0
   10.7964    2.3859   23.7501 N   0  0  0  0  0  0  0  0  0  0  0  0
   11.0178    1.3812   22.8732 C   0  0  0  0  0  0  0  0  0  0  0  0
   12.1310    0.3934   22.9574 C   0  0  0  0  0  0  0  0  0  0  0  0
    9.9651    1.4215   21.9884 C   0  0  0  0  0  0  0  0  0  0  0  0
    9.6573    0.3850   20.9376 C   0  0  0  0  0  0  0  0  0  0  0  0
    8.6195   -0.5875   21.3989 C   0  0  0  0  0  0  0  0  0  0  0  0
    8.8167   -1.4338   22.3917 N   0  0  0  0  0  0  0  0  0  0  0  0
    7.6095   -2.0300   22.5517 C   0  0  0  0  0  0  0  0  0  0  0  0
    7.4466   -3.0639   23.6486 C   0  0  0  0  0  0  0  0  0  0  0  0
    7.0986   -2.4252   25.0195 C   0  0  0  0  0  0  0  0  0  0  0  0
    5.6529   -1.9292   25.0397 C   0  0  0  0  0  0  0  0  0  0  0  0
    4.7369   -2.9525   24.6659 O   0  0  0  0  0  0  0  0  0  0  0  0
    4.9814   -3.6024   23.4221 C   0  0  0  0  0  0  0  0  0  0  0  0
    6.4055   -4.1589   23.3349 C   0  0  0  0  0  0  0  0  0  0  0  0
    6.6782   -1.6018   21.7129 N   0  0  0  0  0  0  0  0  0  0  0  0
    7.3397   -0.6992   20.9349 N   0  0  0  0  0  0  0  0  0  0  0  0
    6.6464   -0.0329   19.8840 C   0  0  0  0  0  0  0  0  0  0  0  0
    5.4337    0.6118   20.1479 C   0  0  0  0  0  0  0  0  0  0  0  0
    4.8142    1.3036   19.1026 C   0  0  0  0  0  0  0  0  0  0  0  0
    5.4050    1.3047   17.8339 C   0  0  0  0  0  0  0  0  0  0  0  0
    6.5468    0.6540   17.5607 N   0  0  0  0  0  0  0  0  0  0  0  0
    7.1456    0.0015   18.5674 C   0  0  0  0  0  0  0  0  0  0  0  0
  1  2  1  0
  2  3  2  0
  3  4  1  0
  4  5  1  0
  5  6  1  0
  5  7  2  0
  7  8  1  0
  8  9  1  0
  9 10  2  0
 10 11  1  0
 11 12  1  0
 12 13  1  0
 13 14  1  0
 14 15  1  0
 15 16  1  0
 16 17  1  0
 11 18  2  0
 18 19  1  0
 19 20  1  0
 20 21  2  0
 21 22  1  0
 22 23  2  0
 23 24  1  0
 24 25  2  0
  7  2  1  0
 19  9  1  0
 25 20  1  0
 17 12  1  0
M  END
>  <cnnaffinity>  (485) 
-6.00522

>  <filename>  (485) 
Cc1n[nH]c(C)c1Cc1nc(C2CCOCC2)nn1-c1cccnc1

>  <enamine_id>  (485) 
PV-006987627194

$$$$

     RDKit          3D

 24 27  0  0  0  0  0  0  0  0999 V2000
   11.6205    2.4814   23.1550 Cl  0  0  0  0  0  0  0  0  0  0  0  0
   10.0220    2.2061   23.8020 C   0  0  0  0  0  0  0  0  0  0  0  0
    9.9003    2.1137   25.1891 C   0  0  0  0  0  0  0  0  0  0  0  0
    8.6506    1.9105   25.7706 C   0  0  0  0  0  0  0  0  0  0  0  0
    7.5314    1.7321   24.9531 C   0  0  0  0  0  0  0  0  0  0  0  0
    7.6754    1.7983   23.5659 C   0  0  0  0  0  0  0  0  0  0  0  0
    8.9144    2.0604   22.9523 C   0  0  0  0  0  0  0  0  0  0  0  0
    9.0505    2.0083   21.4458 C   0  0  0  0  0  0  0  0  0  0  0  0
    9.5261    0.6100   20.9491 C   0  0  0  0  0  0  0  0  0  0  0  0
    8.6471   -0.5098   21.4084 C   0  0  0  0  0  0  0  0  0  0  0  0
    8.8672   -1.3302   22.4245 N   0  0  0  0  0  0  0  0  0  0  0  0
    7.6609   -1.9243   22.5993 C   0  0  0  0  0  0  0  0  0  0  0  0
    7.3748   -2.8149   23.7642 C   0  0  0  0  0  0  0  0  0  0  0  0
    6.4781   -4.0383   23.4461 C   0  0  0  0  0  0  0  0  0  0  0  0
    5.1862   -3.4705   24.6045 S   0  0  0  0  0  0  0  0  0  0  0  0
    6.4430   -2.1681   24.8370 C   0  0  0  0  0  0  0  0  0  0  0  0
    6.7342   -1.5743   21.7312 N   0  0  0  0  0  0  0  0  0  0  0  0
    7.3723   -0.6733   20.9409 N   0  0  0  0  0  0  0  0  0  0  0  0
    6.6614    0.0009   19.9049 C   0  0  0  0  0  0  0  0  0  0  0  0
    5.4442    0.6400   20.1685 C   0  0  0  0  0  0  0  0  0  0  0  0
    4.8152    1.3085   19.1121 C   0  0  0  0  0  0  0  0  0  0  0  0
    5.4002    1.2959   17.8390 C   0  0  0  0  0  0  0  0  0  0  0  0
    6.5585    0.6711   17.5775 N   0  0  0  0  0  0  0  0  0  0  0  0
    7.1672    0.0494   18.5939 C   0  0  0  0  0  0  0  0  0  0  0  0
  1  2  1  0
  2  3  2  0
  3  4  1  0
  4  5  2  0
  5  6  1  0
  6  7  2  0
  7  8  1  0
  8  9  1  0
  9 10  1  0
 10 11  2  0
 11 12  1  0
 12 13  1  0
 13 14  1  0
 14 15  1  0
 15 16  1  0
 12 17  2  0
 17 18  1  0
 18 19  1  0
 19 20  2  0
 20 21  1  0
 21 22  2  0
 22 23  1  0
 23 24  2  0
  7  2  1  0
 18 10  1  0
 24 19  1  0
 16 13  1  0
M  END
>  <cnnaffinity>  (486) 
-6.005

>  <filename>  (486) 
Clc1ccccc1CCc1nc(C2CSC2)nn1-c1cccnc1

>  <enamine_id>  (486) 
PV-006920782594

$$$$

     RDKit          3D

 25 28  0  0  0  0  0  0  0  0999 V2000
    7.2570    6.6219   23.2859 C   0  0  0  0  0  0  0  0  0  0  0  0
    7.5939    5.2508   23.8183 C   0  0  0  0  0  0  0  0  0  0  0  0
    7.3726    4.9668   25.1688 C   0  0  0  0  0  0  0  0  0  0  0  0
    7.7219    3.7271   25.7198 C   0  0  0  0  0  0  0  0  0  0  0  0
    7.5809    3.5329   27.2109 C   0  0  0  0  0  0  0  0  0  0  0  0
    8.2138    2.7296   24.8758 C   0  0  0  0  0  0  0  0  0  0  0  0
    8.4449    2.9981   23.5136 C   0  0  0  0  0  0  0  0  0  0  0  0
    9.0014    1.9794   22.7993 O   0  0  0  0  0  0  0  0  0  0  0  0
    9.0395    1.9989   21.3768 C   0  0  0  0  0  0  0  0  0  0  0  0
    9.5238    0.6128   20.9615 C   0  0  0  0  0  0  0  0  0  0  0  0
    8.6115   -0.4644   21.4311 C   0  0  0  0  0  0  0  0  0  0  0  0
    8.8285   -1.2672   22.4454 N   0  0  0  0  0  0  0  0  0  0  0  0
    7.6434   -1.9217   22.5775 C   0  0  0  0  0  0  0  0  0  0  0  0
    7.4203   -2.9229   23.6497 C   0  0  0  0  0  0  0  0  0  0  0  0
    6.2754   -2.7921   24.6246 C   0  0  0  0  0  0  0  0  0  0  0  0
    7.6879   -2.5706   25.0947 C   0  0  0  0  0  0  0  0  0  0  0  0
    6.7339   -1.6136   21.6743 N   0  0  0  0  0  0  0  0  0  0  0  0
    7.3611   -0.6734   20.9207 N   0  0  0  0  0  0  0  0  0  0  0  0
    6.6664   -0.0202   19.8629 C   0  0  0  0  0  0  0  0  0  0  0  0
    5.4498    0.6254   20.1185 C   0  0  0  0  0  0  0  0  0  0  0  0
    4.8395    1.3196   19.0701 C   0  0  0  0  0  0  0  0  0  0  0  0
    5.4410    1.3139   17.8053 C   0  0  0  0  0  0  0  0  0  0  0  0
    6.5745    0.6471   17.5407 N   0  0  0  0  0  0  0  0  0  0  0  0
    7.1629   -0.0096   18.5471 C   0  0  0  0  0  0  0  0  0  0  0  0
    8.1316    4.2517   22.9838 C   0  0  0  0  0  0  0  0  0  0  0  0
  1  2  1  0
  2  3  2  0
  3  4  1  0
  4  5  1  0
  4  6  2  0
  6  7  1  0
  7  8  1  0
  8  9  1  0
  9 10  1  0
 10 11  1  0
 11 12  2  0
 12 13  1  0
 13 14  1  0
 14 15  1  0
 15 16  1  0
 13 17  2  0
 17 18  1  0
 18 19  1  0
 19 20  2  0
 20 21  1  0
 21 22  2  0
 22 23  1  0
 23 24  2  0
  7 25  2  0
 25  2  1  0
 18 11  1  0
 24 19  1  0
 16 14  1  0
M  END
>  <cnnaffinity>  (487) 
-6.00404

>  <filename>  (487) 
Cc1cc(C)cc(OCCc2nc(C3CC3)nn2-c2cccnc2)c1

>  <enamine_id>  (487) 
PV-007128173074

$$$$

     RDKit          3D

 24 27  0  0  0  0  0  0  0  0999 V2000
    4.8084    1.3114   19.1063 C   0  0  0  0  0  0  0  0  0  0  0  0
    5.3948    1.2968   17.8354 C   0  0  0  0  0  0  0  0  0  0  0  0
    6.5453    0.6618   17.5696 N   0  0  0  0  0  0  0  0  0  0  0  0
    7.1614    0.0358   18.5785 C   0  0  0  0  0  0  0  0  0  0  0  0
    6.6627    0.0022   19.8932 C   0  0  0  0  0  0  0  0  0  0  0  0
    7.3546   -0.6708   20.9376 N   0  0  0  0  0  0  0  0  0  0  0  0
    6.7076   -1.5954   21.6898 N   0  0  0  0  0  0  0  0  0  0  0  0
    7.6485   -2.0082   22.5268 C   0  0  0  0  0  0  0  0  0  0  0  0
    7.4121   -3.0236   23.6117 C   0  0  0  0  0  0  0  0  0  0  0  0
    6.3839   -4.1108   23.2296 C   0  0  0  0  0  0  0  0  0  0  0  0
    6.6927   -5.3125   24.1446 C   0  0  0  0  0  0  0  0  0  0  0  0
    8.1497   -5.1259   24.6538 C   0  0  0  0  0  0  0  0  0  0  0  0
    8.6744   -3.8161   24.0268 C   0  0  0  0  0  0  0  0  0  0  0  0
    8.8493   -1.3892   22.3743 N   0  0  0  0  0  0  0  0  0  0  0  0
    8.6279   -0.5318   21.4032 C   0  0  0  0  0  0  0  0  0  0  0  0
    9.5921    0.5080   20.9528 C   0  0  0  0  0  0  0  0  0  0  0  0
    9.7718    1.8963   22.1078 S   0  0  0  0  0  0  0  0  0  0  0  0
    8.0827    2.5749   21.9546 C   0  0  0  0  0  0  0  0  0  0  0  0
    7.9245    3.8117   22.7645 C   0  0  0  0  0  0  0  0  0  0  0  0
    7.4271    3.8691   23.9704 N   0  0  0  0  0  0  0  0  0  0  0  0
    7.5595    5.1711   24.3797 C   0  0  0  0  0  0  0  0  0  0  0  0
    8.1430    5.9141   23.3872 C   0  0  0  0  0  0  0  0  0  0  0  0
    8.3683    5.0306   22.3509 N   0  0  0  0  0  0  0  0  0  0  0  0
    5.4473    0.6413   20.1557 C   0  0  0  0  0  0  0  0  0  0  0  0
  1  2  2  0
  2  3  1  0
  3  4  2  0
  4  5  1  0
  5  6  1  0
  6  7  1  0
  7  8  2  0
  8  9  1  0
  9 10  1  0
 10 11  1  0
 11 12  1  0
 12 13  1  0
  8 14  1  0
 14 15  2  0
 15 16  1  0
 16 17  1  0
 17 18  1  0
 18 19  1  0
 19 20  2  0
 20 21  1  0
 21 22  2  0
 22 23  1  0
  5 24  2  0
 24  1  1  0
 15  6  1  0
 23 19  1  0
 13  9  1  0
M  END
>  <cnnaffinity>  (488) 
-6.00393

>  <filename>  (488) 
c1cncc(-n2nc(C3CCCC3)nc2CSCc2ncc[nH]2)c1

>  <enamine_id>  (488) 
PV-006882097926

$$$$

     RDKit          3D

 26 29  0  0  0  0  0  0  0  0999 V2000
    7.3946    6.2371   23.5160 C   0  0  0  0  0  0  0  0  0  0  0  0
    8.7741    5.9995   23.5033 C   0  0  0  0  0  0  0  0  0  0  0  0
    9.2560    4.7053   23.2837 C   0  0  0  0  0  0  0  0  0  0  0  0
    8.3704    3.6370   23.0829 C   0  0  0  0  0  0  0  0  0  0  0  0
    8.8874    2.2548   22.7782 C   0  0  0  0  0  0  0  0  0  0  0  0
    9.0281    2.0222   21.2679 C   0  0  0  0  0  0  0  0  0  0  0  0
    9.5367    0.6145   20.9259 C   0  0  0  0  0  0  0  0  0  0  0  0
    8.6408   -0.4615   21.4238 C   0  0  0  0  0  0  0  0  0  0  0  0
    8.8757   -1.2736   22.4378 N   0  0  0  0  0  0  0  0  0  0  0  0
    7.6991   -1.9332   22.5725 C   0  0  0  0  0  0  0  0  0  0  0  0
    7.4543   -2.9241   23.6774 C   0  0  0  0  0  0  0  0  0  0  0  0
    6.4832   -2.3587   24.7465 C   0  0  0  0  0  0  0  0  0  0  0  0
    6.1257   -3.4260   25.7772 C   0  0  0  0  0  0  0  0  0  0  0  0
    5.6079   -4.5942   25.1623 O   0  0  0  0  0  0  0  0  0  0  0  0
    6.5473   -5.2029   24.2929 C   0  0  0  0  0  0  0  0  0  0  0  0
    6.9325   -4.2775   23.1406 C   0  0  0  0  0  0  0  0  0  0  0  0
    6.7642   -1.5941   21.7022 N   0  0  0  0  0  0  0  0  0  0  0  0
    7.3792   -0.6561   20.9410 N   0  0  0  0  0  0  0  0  0  0  0  0
    6.6630    0.0096   19.9046 C   0  0  0  0  0  0  0  0  0  0  0  0
    5.4405    0.6392   20.1676 C   0  0  0  0  0  0  0  0  0  0  0  0
    4.8131    1.3070   19.1099 C   0  0  0  0  0  0  0  0  0  0  0  0
    5.4004    1.2962   17.8375 C   0  0  0  0  0  0  0  0  0  0  0  0
    6.5597    0.6736   17.5747 N   0  0  0  0  0  0  0  0  0  0  0  0
    7.1687    0.0552   18.5934 C   0  0  0  0  0  0  0  0  0  0  0  0
    6.9913    3.8907   23.0806 C   0  0  0  0  0  0  0  0  0  0  0  0
    6.5017    5.1812   23.2996 C   0  0  0  0  0  0  0  0  0  0  0  0
  1  2  2  0
  2  3  1  0
  3  4  2  0
  4  5  1  0
  5  6  1  0
  6  7  1  0
  7  8  1  0
  8  9  2  0
  9 10  1  0
 10 11  1  0
 11 12  1  0
 12 13  1  0
 13 14  1  0
 14 15  1  0
 15 16  1  0
 10 17  2  0
 17 18  1  0
 18 19  1  0
 19 20  2  0
 20 21  1  0
 21 22  2  0
 22 23  1  0
 23 24  2  0
  4 25  1  0
 25 26  2  0
 26  1  1  0
 18  8  1  0
 24 19  1  0
 16 11  1  0
M  END
>  <cnnaffinity>  (489) 
-6.00391

>  <filename>  (489) 
c1ccc(CCCc2nc(C3CCOCC3)nn2-c2cccnc2)cc1

>  <enamine_id>  (489) 
PV-007092932920

$$$$

     RDKit          3D

 26 29  0  0  0  0  0  0  0  0999 V2000
    7.8596    3.8665   27.1864 C   0  0  0  0  0  0  0  0  0  0  0  0
    7.8991    3.9621   25.6808 C   0  0  0  0  0  0  0  0  0  0  0  0
    7.5218    5.1672   25.0576 C   0  0  0  0  0  0  0  0  0  0  0  0
    7.6594    5.3353   23.6821 C   0  0  0  0  0  0  0  0  0  0  0  0
    8.1584    4.2970   22.8930 C   0  0  0  0  0  0  0  0  0  0  0  0
    8.4915    3.0811   23.4949 C   0  0  0  0  0  0  0  0  0  0  0  0
    8.9758    2.0097   22.8180 O   0  0  0  0  0  0  0  0  0  0  0  0
    9.0318    2.0227   21.3980 C   0  0  0  0  0  0  0  0  0  0  0  0
    9.5336    0.6389   21.0019 C   0  0  0  0  0  0  0  0  0  0  0  0
    8.6166   -0.4380   21.4680 C   0  0  0  0  0  0  0  0  0  0  0  0
    8.8212   -1.2548   22.4796 N   0  0  0  0  0  0  0  0  0  0  0  0
    7.6429   -1.9294   22.5790 C   0  0  0  0  0  0  0  0  0  0  0  0
    7.3976   -2.9510   23.6494 C   0  0  1  0  0  0  0  0  0  0  0  0
    6.4416   -4.1135   23.2941 C   0  0  0  0  0  0  0  0  0  0  0  0
    6.9137   -5.2297   24.2387 C   0  0  0  0  0  0  0  0  0  0  0  0
    8.2404   -4.9155   24.6365 O   0  0  0  0  0  0  0  0  0  0  0  0
    8.6753   -3.6959   24.0667 C   0  0  0  0  0  0  0  0  0  0  0  0
    6.7343   -1.5903   21.6883 N   0  0  0  0  0  0  0  0  0  0  0  0
    7.3697   -0.6455   20.9469 N   0  0  0  0  0  0  0  0  0  0  0  0
    6.6724    0.0074   19.8934 C   0  0  0  0  0  0  0  0  0  0  0  0
    5.4503    0.6408   20.1438 C   0  0  0  0  0  0  0  0  0  0  0  0
    4.8310    1.3160   19.0886 C   0  0  0  0  0  0  0  0  0  0  0  0
    5.4360    1.3112   17.8241 C   0  0  0  0  0  0  0  0  0  0  0  0
    6.5815    0.6617   17.5668 N   0  0  0  0  0  0  0  0  0  0  0  0
    7.1727    0.0206   18.5799 C   0  0  0  0  0  0  0  0  0  0  0  0
    8.3323    2.9025   24.8825 C   0  0  0  0  0  0  0  0  0  0  0  0
  1  2  1  0
  2  3  2  0
  3  4  1  0
  4  5  2  0
  5  6  1  0
  6  7  1  0
  7  8  1  0
  8  9  1  0
  9 10  1  0
 10 11  2  0
 11 12  1  0
 13 12  1  6
 13 14  1  0
 14 15  1  0
 15 16  1  0
 16 17  1  0
 12 18  2  0
 18 19  1  0
 19 20  1  0
 20 21  2  0
 21 22  1  0
 22 23  2  0
 23 24  1  0
 24 25  2  0
  6 26  2  0
 26  2  1  0
 19 10  1  0
 25 20  1  0
 17 13  1  0
M  END
>  <cnnaffinity>  (490) 
-6.00381

>  <filename>  (490) 
Cc1cccc(OCCc2nc(C3CCOC3)nn2-c2cccnc2)c1

>  <enamine_id>  (490) 
PV-006927401295

$$$$

     RDKit          3D

 26 29  0  0  0  0  0  0  0  0999 V2000
   10.8719    0.5767   21.4227 O   0  0  0  0  0  0  0  0  0  0  0  0
    9.5289    0.6665   21.0319 C   0  0  2  0  0  0  0  0  0  0  0  0
    8.9353    1.9955   21.5908 C   0  0  0  0  0  0  0  0  0  0  0  0
    8.7664    1.8974   23.0819 C   0  0  0  0  0  0  0  0  0  0  0  0
    7.5108    1.7085   23.6847 C   0  0  0  0  0  0  0  0  0  0  0  0
    7.4215    1.6448   25.0733 C   0  0  0  0  0  0  0  0  0  0  0  0
    8.6071    1.7419   25.8065 C   0  0  0  0  0  0  0  0  0  0  0  0
    9.8210    1.8623   25.1223 C   0  0  0  0  0  0  0  0  0  0  0  0
    9.9100    1.8952   23.7886 N   0  0  0  0  0  0  0  0  0  0  0  0
    8.6680   -0.5601   21.3950 C   0  0  0  0  0  0  0  0  0  0  0  0
    8.8629   -1.4600   22.3448 N   0  0  0  0  0  0  0  0  0  0  0  0
    7.6325   -2.0081   22.5386 C   0  0  0  0  0  0  0  0  0  0  0  0
    7.3564   -2.9512   23.6797 C   0  0  1  0  0  0  0  0  0  0  0  0
    8.5095   -3.9755   23.8545 C   0  0  0  0  0  0  0  0  0  0  0  0
    8.4208   -4.7529   25.1474 C   0  0  0  0  0  0  0  0  0  0  0  0
    7.6490   -4.3892   26.1768 C   0  0  0  0  0  0  0  0  0  0  0  0
    6.8020   -3.1357   26.1753 C   0  0  0  0  0  0  0  0  0  0  0  0
    7.1617   -2.1805   25.0177 C   0  0  0  0  0  0  0  0  0  0  0  0
    6.7019   -1.5503   21.7265 N   0  0  0  0  0  0  0  0  0  0  0  0
    7.3738   -0.6554   20.9533 N   0  0  0  0  0  0  0  0  0  0  0  0
    6.6852   -0.0051   19.8906 C   0  0  0  0  0  0  0  0  0  0  0  0
    5.4640    0.6286   20.1399 C   0  0  0  0  0  0  0  0  0  0  0  0
    4.8434    1.3090   19.0893 C   0  0  0  0  0  0  0  0  0  0  0  0
    5.4378    1.3051   17.8224 C   0  0  0  0  0  0  0  0  0  0  0  0
    6.5768    0.6470   17.5610 N   0  0  0  0  0  0  0  0  0  0  0  0
    7.1761    0.0074   18.5724 C   0  0  0  0  0  0  0  0  0  0  0  0
  2  1  1  1
  2  3  1  0
  3  4  1  0
  4  5  2  0
  5  6  1  0
  6  7  2  0
  7  8  1  0
  8  9  2  0
  2 10  1  0
 10 11  2  0
 11 12  1  0
 13 12  1  6
 13 14  1  0
 14 15  1  0
 15 16  2  0
 16 17  1  0
 17 18  1  0
 12 19  2  0
 19 20  1  0
 20 21  1  0
 21 22  2  0
 22 23  1  0
 23 24  2  0
 24 25  1  0
 25 26  2  0
  9  4  1  0
 20 10  1  0
 26 21  1  0
 18 13  1  0
M  END
>  <cnnaffinity>  (491) 
-6.00299

>  <filename>  (491) 
OC(Cc1ccccn1)c1nc(C2CC=CCC2)nn1-c1cccnc1

>  <enamine_id>  (491) 
PV-007049605758

$$$$

     RDKit          3D

 27 30  0  0  0  0  0  0  0  0999 V2000
    5.3956   -5.7188   26.4069 C   0  0  0  0  0  0  0  0  0  0  0  0
    5.6600   -4.7115   25.2851 C   0  0  1  0  0  0  0  0  0  0  0  0
    6.1935   -3.3782   25.8418 C   0  0  0  0  0  0  0  0  0  0  0  0
    6.4791   -2.3621   24.7316 C   0  0  0  0  0  0  0  0  0  0  0  0
    7.4359   -2.9432   23.6560 C   0  0  2  0  0  0  0  0  0  0  0  0
    7.6849   -1.9509   22.5593 C   0  0  0  0  0  0  0  0  0  0  0  0
    6.7548   -1.6020   21.6876 N   0  0  0  0  0  0  0  0  0  0  0  0
    7.3759   -0.6573   20.9402 N   0  0  0  0  0  0  0  0  0  0  0  0
    6.6651    0.0104   19.9023 C   0  0  0  0  0  0  0  0  0  0  0  0
    5.4429    0.6402   20.1670 C   0  0  0  0  0  0  0  0  0  0  0  0
    4.8136    1.3076   19.1093 C   0  0  0  0  0  0  0  0  0  0  0  0
    5.3997    1.2949   17.8395 C   0  0  0  0  0  0  0  0  0  0  0  0
    6.5572    0.6711   17.5767 N   0  0  0  0  0  0  0  0  0  0  0  0
    7.1686    0.0523   18.5923 C   0  0  0  0  0  0  0  0  0  0  0  0
    8.6328   -0.4639   21.4316 C   0  0  0  0  0  0  0  0  0  0  0  0
    9.5306    0.6281   20.9541 C   0  0  0  0  0  0  0  0  0  0  0  0
    9.0434    2.0409   21.3367 C   0  0  0  0  0  0  0  0  0  0  0  0
    8.9775    2.2535   22.8536 C   0  0  0  0  0  0  0  0  0  0  0  0
    8.4958    3.5717   23.2074 N   0  0  0  0  0  0  0  0  0  0  0  0
    7.1979    3.8249   23.7944 C   0  0  0  0  0  0  0  0  0  0  0  0
    7.2414    5.3582   23.9627 C   0  0  0  0  0  0  0  0  0  0  0  0
    8.5290    5.7730   23.5073 O   0  0  0  0  0  0  0  0  0  0  0  0
    9.2623    4.7053   23.0854 C   0  0  0  0  0  0  0  0  0  0  0  0
   10.4035    4.7967   22.7150 O   0  0  0  0  0  0  0  0  0  0  0  0
    8.8615   -1.2864   22.4360 N   0  0  0  0  0  0  0  0  0  0  0  0
    6.9088   -4.2881   23.1016 C   0  0  0  0  0  0  0  0  0  0  0  0
    6.6239   -5.2847   24.2300 C   0  0  0  0  0  0  0  0  0  0  0  0
  2  1  1  1
  2  3  1  0
  3  4  1  0
  4  5  1  0
  5  6  1  6
  6  7  2  0
  7  8  1  0
  8  9  1  0
  9 10  2  0
 10 11  1  0
 11 12  2  0
 12 13  1  0
 13 14  2  0
  8 15  1  0
 15 16  1  0
 16 17  1  0
 17 18  1  0
 18 19  1  0
 19 20  1  0
 20 21  1  0
 21 22  1  0
 22 23  1  0
 23 24  2  0
 15 25  2  0
  5 26  1  0
 26 27  1  0
 27  2  1  0
 25  6  1  0
 14  9  1  0
 23 19  1  0
M  END
>  <cnnaffinity>  (492) 
-6.00291

>  <filename>  (492) 
CC1CCC(c2nc(CCCN3CCOC3=O)n(-c3cccnc3)n2)CC1

>  <enamine_id>  (492) 
PV-006883739494

$$$$

     RDKit          3D

 27 30  0  0  0  0  0  0  0  0999 V2000
    6.9380    5.8037   26.5834 C   0  0  0  0  0  0  0  0  0  0  0  0
    7.4929    4.7788   25.6192 C   0  0  0  0  0  0  0  0  0  0  0  0
    7.6753    5.0772   24.2681 C   0  0  0  0  0  0  0  0  0  0  0  0
    8.1585    4.1219   23.3628 C   0  0  0  0  0  0  0  0  0  0  0  0
    8.4682    2.8330   23.8088 C   0  0  0  0  0  0  0  0  0  0  0  0
    8.9647    1.8457   23.0029 O   0  0  0  0  0  0  0  0  0  0  0  0
    9.0422    1.9960   21.5925 C   0  0  0  0  0  0  0  0  0  0  0  0
    9.4979    0.6512   21.0165 C   0  0  0  0  0  0  0  0  0  0  0  0
    8.6137   -0.4645   21.4417 C   0  0  0  0  0  0  0  0  0  0  0  0
    8.8320   -1.2751   22.4537 N   0  0  0  0  0  0  0  0  0  0  0  0
    7.6432   -1.9167   22.5931 C   0  0  0  0  0  0  0  0  0  0  0  0
    7.3995   -2.8721   23.7172 C   0  0  2  0  0  0  0  0  0  0  0  0
    8.6518   -3.5988   24.2523 C   0  0  0  0  0  0  0  0  0  0  0  0
    8.0782   -4.9037   24.8158 C   0  0  0  0  0  0  0  0  0  0  0  0
    6.8129   -5.0974   24.1980 O   0  0  0  0  0  0  0  0  0  0  0  0
    6.4728   -4.0322   23.3326 C   0  0  0  0  0  0  0  0  0  0  0  0
    6.7237   -1.5891   21.7045 N   0  0  0  0  0  0  0  0  0  0  0  0
    7.3605   -0.6629   20.9379 N   0  0  0  0  0  0  0  0  0  0  0  0
    6.6588    0.0093   19.8995 C   0  0  0  0  0  0  0  0  0  0  0  0
    5.4387    0.6423   20.1653 C   0  0  0  0  0  0  0  0  0  0  0  0
    4.8124    1.3100   19.1091 C   0  0  0  0  0  0  0  0  0  0  0  0
    5.4005    1.2963   17.8375 C   0  0  0  0  0  0  0  0  0  0  0  0
    6.5586    0.6721   17.5745 N   0  0  0  0  0  0  0  0  0  0  0  0
    7.1683    0.0513   18.5900 C   0  0  0  0  0  0  0  0  0  0  0  0
    8.2930    2.4953   25.1792 C   0  0  0  0  0  0  0  0  0  0  0  0
    8.5974    1.1124   25.7005 C   0  0  0  0  0  0  0  0  0  0  0  0
    7.8107    3.4809   26.0459 C   0  0  0  0  0  0  0  0  0  0  0  0
  1  2  1  0
  2  3  2  0
  3  4  1  0
  4  5  2  0
  5  6  1  0
  6  7  1  0
  7  8  1  0
  8  9  1  0
  9 10  2  0
 10 11  1  0
 12 11  1  6
 12 13  1  0
 13 14  1  0
 14 15  1  0
 15 16  1  0
 11 17  2  0
 17 18  1  0
 18 19  1  0
 19 20  2  0
 20 21  1  0
 21 22  2  0
 22 23  1  0
 23 24  2  0
  5 25  1  0
 25 26  1  0
 25 27  2  0
 27  2  1  0
 18  9  1  0
 24 19  1  0
 16 12  1  0
M  END
>  <cnnaffinity>  (493) 
-6.00275

>  <filename>  (493) 
Cc1ccc(OCCc2nc(C3CCOC3)nn2-c2cccnc2)c(C)c1

>  <enamine_id>  (493) 
PV-007142080103

$$$$

     RDKit          3D

 25 28  0  0  0  0  0  0  0  0999 V2000
    6.6829   -0.6197   27.0204 C   0  0  0  0  0  0  0  0  0  0  0  0
    7.9237   -0.3418   26.2059 C   0  0  0  0  0  0  0  0  0  0  0  0
    8.9571   -1.2874   26.1620 C   0  0  0  0  0  0  0  0  0  0  0  0
   10.1111   -1.1013   25.5062 N   0  0  0  0  0  0  0  0  0  0  0  0
   10.2978    0.0374   24.8594 C   0  0  0  0  0  0  0  0  0  0  0  0
    9.3124    1.0247   24.7846 C   0  0  0  0  0  0  0  0  0  0  0  0
    9.6002    2.1179   23.9315 N   0  0  0  0  0  0  0  0  0  0  0  0
   10.7444    2.8320   24.0925 N   0  0  0  0  0  0  0  0  0  0  0  0
   10.7903    3.5640   22.9967 C   0  0  0  0  0  0  0  0  0  0  0  0
   11.8798    4.5620   22.7552 C   0  0  0  0  0  0  0  0  0  0  0  0
   12.2092    5.4361   23.9954 C   0  0  0  0  0  0  0  0  0  0  0  0
   13.9500    4.9105   23.9944 S   0  0  0  0  0  0  0  0  0  0  0  0
   13.3181    3.9850   22.5650 C   0  0  0  0  0  0  0  0  0  0  0  0
    9.7950    3.3115   22.1137 N   0  0  0  0  0  0  0  0  0  0  0  0
    9.0779    2.3753   22.7012 C   0  0  0  0  0  0  0  0  0  0  0  0
    8.0058    1.5284   22.1022 C   0  0  0  0  0  0  0  0  0  0  0  0
    8.5235    0.1891   21.5249 C   0  0  0  0  0  0  0  0  0  0  0  0
    7.4011   -0.7054   20.9793 C   0  0  0  0  0  0  0  0  0  0  0  0
    6.6227   -0.0479   19.8619 C   0  0  0  0  0  0  0  0  0  0  0  0
    5.4103    0.6176   20.0959 C   0  0  0  0  0  0  0  0  0  0  0  0
    4.7938    1.3054   19.0472 C   0  0  0  0  0  0  0  0  0  0  0  0
    5.4116    1.3089   17.7925 C   0  0  0  0  0  0  0  0  0  0  0  0
    6.5644    0.6710   17.5365 N   0  0  0  0  0  0  0  0  0  0  0  0
    7.1433    0.0235   18.5570 C   0  0  0  0  0  0  0  0  0  0  0  0
    8.0987    0.8462   25.4677 C   0  0  0  0  0  0  0  0  0  0  0  0
  1  2  1  0
  2  3  2  0
  3  4  1  0
  4  5  2  0
  5  6  1  0
  6  7  1  0
  7  8  1  0
  8  9  2  0
  9 10  1  0
 10 11  1  0
 11 12  1  0
 12 13  1  0
  9 14  1  0
 14 15  2  0
 15 16  1  0
 16 17  1  0
 17 18  1  0
 18 19  1  0
 19 20  2  0
 20 21  1  0
 21 22  2  0
 22 23  1  0
 23 24  2  0
  6 25  2  0
 25  2  1  0
 15  7  1  0
 24 19  1  0
 13 10  1  0
M  END
>  <cnnaffinity>  (494) 
-6.00105

>  <filename>  (494) 
Cc1cncc(-n2nc(C3CSC3)nc2CCCc2cccnc2)c1

>  <enamine_id>  (494) 
PV-007087461881

$$$$

     RDKit          3D

 22 24  0  0  0  0  0  0  0  0999 V2000
    6.5355   -4.8570   22.3891 C   0  0  0  0  0  0  0  0  0  0  0  0
    7.8275   -4.4497   23.0891 C   0  0  0  0  0  0  0  0  0  0  0  0
    8.6845   -3.5341   22.2048 C   0  0  0  0  0  0  0  0  0  0  0  0
    8.1009   -2.1763   21.9754 C   0  0  0  0  0  0  0  0  0  0  0  0
    7.6541   -1.8161   20.7934 N   0  0  0  0  0  0  0  0  0  0  0  0
    7.1885   -0.5594   20.9984 N   0  0  0  0  0  0  0  0  0  0  0  0
    6.5511    0.1041   19.9164 C   0  0  0  0  0  0  0  0  0  0  0  0
    5.3440    0.7923   20.0780 C   0  0  0  0  0  0  0  0  0  0  0  0
    4.7845    1.4105   18.9539 C   0  0  0  0  0  0  0  0  0  0  0  0
    5.4540    1.3313   17.7305 C   0  0  0  0  0  0  0  0  0  0  0  0
    6.5964    0.6390   17.5635 N   0  0  0  0  0  0  0  0  0  0  0  0
    7.1112    0.0159   18.6275 C   0  0  0  0  0  0  0  0  0  0  0  0
    7.4568   -0.1967   22.2935 C   0  0  0  0  0  0  0  0  0  0  0  0
    7.2613    1.1610   22.9206 C   0  0  0  0  0  0  0  0  0  0  0  0
    8.5529    1.6864   23.5408 C   0  0  0  0  0  0  0  0  0  0  0  0
    8.7979    1.5770   24.9155 C   0  0  0  0  0  0  0  0  0  0  0  0
   10.0547    1.8593   25.4589 C   0  0  0  0  0  0  0  0  0  0  0  0
   11.0738    2.3359   24.6341 C   0  0  0  0  0  0  0  0  0  0  0  0
   10.8436    2.5221   23.2716 C   0  0  0  0  0  0  0  0  0  0  0  0
    9.5994    2.1679   22.7427 C   0  0  0  0  0  0  0  0  0  0  0  0
    9.3656    2.2936   21.0333 Cl  0  0  0  0  0  0  0  0  0  0  0  0
    8.0065   -1.2163   22.9302 N   0  0  0  0  0  0  0  0  0  0  0  0
  1  2  1  0
  2  3  1  0
  3  4  1  0
  4  5  2  0
  5  6  1  0
  6  7  1  0
  7  8  2  0
  8  9  1  0
  9 10  2  0
 10 11  1  0
 11 12  2  0
  6 13  1  0
 13 14  1  0
 14 15  1  0
 15 16  2  0
 16 17  1  0
 17 18  2  0
 18 19  1  0
 19 20  2  0
 20 21  1  0
 13 22  2  0
 22  4  1  0
 12  7  1  0
 20 15  1  0
M  END
>  <cnnaffinity>  (495) 
-6.00023

>  <filename>  (495) 
CCCc1nc(Cc2ccccc2Cl)n(-c2cccnc2)n1

>  <enamine_id>  (495) 
PV-006901129565

$$$$

     RDKit          3D

 27 30  0  0  0  0  0  0  0  0999 V2000
    7.0617    6.3128   26.4197 Cl  0  0  0  0  0  0  0  0  0  0  0  0
    7.6215    5.0442   25.3678 C   0  0  0  0  0  0  0  0  0  0  0  0
    7.6759    5.2609   23.9932 C   0  0  0  0  0  0  0  0  0  0  0  0
    8.1250    4.2423   23.1408 C   0  0  0  0  0  0  0  0  0  0  0  0
    8.5183    3.0050   23.6682 C   0  0  0  0  0  0  0  0  0  0  0  0
    8.9759    1.9538   22.9352 O   0  0  0  0  0  0  0  0  0  0  0  0
    9.0352    2.0168   21.5137 C   0  0  0  0  0  0  0  0  0  0  0  0
    9.5081    0.6532   21.0100 C   0  0  0  0  0  0  0  0  0  0  0  0
    8.6250   -0.4521   21.4481 C   0  0  0  0  0  0  0  0  0  0  0  0
    8.8684   -1.2952   22.4298 N   0  0  0  0  0  0  0  0  0  0  0  0
    7.6904   -1.9541   22.5589 C   0  0  0  0  0  0  0  0  0  0  0  0
    7.4345   -2.9336   23.6717 C   0  0  0  0  0  0  0  0  0  0  0  0
    6.8495   -4.2670   23.1524 C   0  0  0  0  0  0  0  0  0  0  0  0
    6.4591   -5.1773   24.3155 C   0  0  0  0  0  0  0  0  0  0  0  0
    5.5671   -4.5353   25.2098 O   0  0  0  0  0  0  0  0  0  0  0  0
    6.1404   -3.3853   25.8084 C   0  0  0  0  0  0  0  0  0  0  0  0
    6.5119   -2.3317   24.7670 C   0  0  0  0  0  0  0  0  0  0  0  0
    6.7575   -1.6059   21.6902 N   0  0  0  0  0  0  0  0  0  0  0  0
    7.3717   -0.6511   20.9481 N   0  0  0  0  0  0  0  0  0  0  0  0
    6.6612    0.0118   19.9045 C   0  0  0  0  0  0  0  0  0  0  0  0
    5.4390    0.6398   20.1686 C   0  0  0  0  0  0  0  0  0  0  0  0
    4.8135    1.3080   19.1097 C   0  0  0  0  0  0  0  0  0  0  0  0
    5.4009    1.2968   17.8371 C   0  0  0  0  0  0  0  0  0  0  0  0
    6.5579    0.6710   17.5739 N   0  0  0  0  0  0  0  0  0  0  0  0
    7.1666    0.0519   18.5921 C   0  0  0  0  0  0  0  0  0  0  0  0
    8.4584    2.7995   25.0614 C   0  0  0  0  0  0  0  0  0  0  0  0
    8.0124    3.8150   25.9080 C   0  0  0  0  0  0  0  0  0  0  0  0
  1  2  1  0
  2  3  2  0
  3  4  1  0
  4  5  2  0
  5  6  1  0
  6  7  1  0
  7  8  1  0
  8  9  1  0
  9 10  2  0
 10 11  1  0
 11 12  1  0
 12 13  1  0
 13 14  1  0
 14 15  1  0
 15 16  1  0
 16 17  1  0
 11 18  2  0
 18 19  1  0
 19 20  1  0
 20 21  2  0
 21 22  1  0
 22 23  2  0
 23 24  1  0
 24 25  2  0
  5 26  1  0
 26 27  2  0
 27  2  1  0
 19  9  1  0
 25 20  1  0
 17 12  1  0
M  END
>  <cnnaffinity>  (496) 
-6.00009

>  <filename>  (496) 
Clc1ccc(OCCc2nc(C3CCOCC3)nn2-c2cccnc2)cc1

>  <enamine_id>  (496) 
PV-006778083497

$$$$
